
*** ChampSim Multicore Out-of-Order Simulator ***

Warmup Instructions: 100000
Simulation Instructions: 10000000
Configuration: 1
Number of CPUs: 1
LLC sets: 2048
LLC ways: 16
Off-chip DRAM Channels: 1 Width: 64-bit Data Rate: 1600 MT/s

CPU 0 runs trace/bzip2_10M.trace.gz
Initialize SRRIP state

Warmup complete CPU 0 instructions: 100001 cycles: 45342 (Simulation time: 0 hr 0 min 0 sec) 

SIG: 4205221 hits: 0 fills: 25
SIG: 4205225 hits: 0 fills: 5
SIG: 4205231 hits: 0 fills: 1
SIG: 4205234 hits: 0 fills: 1
SIG: 4205247 hits: 0 fills: 8
SIG: 4205264 hits: 0 fills: 2
SIG: 4205268 hits: 0 fills: 2
SIG: 4205281 hits: 0 fills: 1
SIG: 4205298 hits: 0 fills: 1
SIG: 4205311 hits: 0 fills: 1
SIG: 4205315 hits: 0 fills: 6
SIG: 4205319 hits: 0 fills: 2
SIG: 4205336 hits: 0 fills: 1
SIG: 4205349 hits: 0 fills: 2
SIG: 4205366 hits: 0 fills: 1
SIG: 4205370 hits: 0 fills: 1
SIG: 4205380 hits: 0 fills: 1
SIG: 4205387 hits: 0 fills: 1
SIG: 4205391 hits: 0 fills: 2
SIG: 4205408 hits: 0 fills: 2
SIG: 4205412 hits: 0 fills: 1
SIG: 4205429 hits: 0 fills: 2
SIG: 4205433 hits: 0 fills: 1
SIG: 4205443 hits: 0 fills: 1
SIG: 4205460 hits: 0 fills: 1
SIG: 4205465 hits: 0 fills: 3
SIG: 4205475 hits: 0 fills: 77
SIG: 4205480 hits: 0 fills: 42
SIG: 4205499 hits: 0 fills: 1
SIG: 4205504 hits: 0 fills: 1
SIG: 4205514 hits: 0 fills: 1
SIG: 4205519 hits: 0 fills: 1
SIG: 4205569 hits: 0 fills: 1
SIG: 4205789 hits: 0 fills: 1
SIG: 4207217 hits: 0 fills: 1
SIG: 4207237 hits: 0 fills: 1
SIG: 4207242 hits: 0 fills: 2
SIG: 4207298 hits: 0 fills: 1
SIG: 4207377 hits: 0 fills: 1
SIG: 4207424 hits: 0 fills: 1
SIG: 4207450 hits: 0 fills: 2
SIG: 4207456 hits: 0 fills: 2
SIG: 4207464 hits: 0 fills: 2
SIG: 4207470 hits: 0 fills: 2
SIG: 4207472 hits: 0 fills: 2
SIG: 4207477 hits: 0 fills: 1
SIG: 4207488 hits: 0 fills: 1
SIG: 4207552 hits: 0 fills: 31
SIG: 4207559 hits: 0 fills: 515
SIG: 4207602 hits: 0 fills: 1
SIG: 4207646 hits: 0 fills: 1
SIG: 4207676 hits: 0 fills: 1
SIG: 4207683 hits: 0 fills: 2
SIG: 4207695 hits: 0 fills: 1
SIG: 4207752 hits: 0 fills: 1
SIG: 4207812 hits: 0 fills: 19
SIG: 4207818 hits: 0 fills: 191
SIG: 4207854 hits: 0 fills: 1
SIG: 4207875 hits: 0 fills: 1
SIG: 4208010 hits: 0 fills: 1
SIG: 4208019 hits: 0 fills: 1
SIG: 4208112 hits: 0 fills: 1
SIG: 4208128 hits: 0 fills: 1
SIG: 4208196 hits: 0 fills: 1
SIG: 4208304 hits: 0 fills: 2
SIG: 4208312 hits: 0 fills: 1
SIG: 4208378 hits: 0 fills: 1
SIG: 4208382 hits: 0 fills: 1
SIG: 4208387 hits: 0 fills: 1
SIG: 4208427 hits: 0 fills: 1
SIG: 4208479 hits: 0 fills: 1
SIG: 4208514 hits: 0 fills: 1
SIG: 4208554 hits: 0 fills: 1
SIG: 4208576 hits: 0 fills: 1
SIG: 4208645 hits: 0 fills: 1
SIG: 4208673 hits: 0 fills: 1
SIG: 4208714 hits: 0 fills: 1
SIG: 4209424 hits: 0 fills: 1
SIG: 4209472 hits: 0 fills: 1
SIG: 4209536 hits: 0 fills: 1
SIG: 4209603 hits: 0 fills: 1
SIG: 4209666 hits: 0 fills: 1
SIG: 4209731 hits: 0 fills: 1
SIG: 4209792 hits: 0 fills: 1
SIG: 4209859 hits: 0 fills: 1
SIG: 4209924 hits: 0 fills: 1
SIG: 4209986 hits: 0 fills: 1
SIG: 4210085 hits: 0 fills: 1
SIG: 4210115 hits: 0 fills: 1
SIG: 4210178 hits: 0 fills: 1
SIG: 4210245 hits: 0 fills: 1
SIG: 4210306 hits: 0 fills: 1
SIG: 4210389 hits: 0 fills: 1
SIG: 4210435 hits: 0 fills: 1
SIG: 4210619 hits: 0 fills: 1
SIG: 4210627 hits: 0 fills: 1
SIG: 4210642 hits: 0 fills: 1
SIG: 4210688 hits: 0 fills: 1
1024 0
SIG: 4205221 hits: 0 fills: 0
SIG: 4205225 hits: 0 fills: 0
SIG: 4205231 hits: 0 fills: 0
SIG: 4205234 hits: 0 fills: 0
SIG: 4205247 hits: 0 fills: 0
SIG: 4205264 hits: 0 fills: 0
SIG: 4205268 hits: 0 fills: 0
SIG: 4205281 hits: 0 fills: 0
SIG: 4205298 hits: 0 fills: 0
SIG: 4205311 hits: 0 fills: 0
SIG: 4205315 hits: 0 fills: 0
SIG: 4205319 hits: 0 fills: 0
SIG: 4205336 hits: 0 fills: 0
SIG: 4205349 hits: 0 fills: 0
SIG: 4205366 hits: 0 fills: 0
SIG: 4205370 hits: 0 fills: 0
SIG: 4205380 hits: 0 fills: 0
SIG: 4205387 hits: 0 fills: 0
SIG: 4205391 hits: 0 fills: 0
SIG: 4205408 hits: 0 fills: 0
SIG: 4205412 hits: 0 fills: 0
SIG: 4205429 hits: 0 fills: 0
SIG: 4205433 hits: 0 fills: 0
SIG: 4205443 hits: 0 fills: 0
SIG: 4205460 hits: 0 fills: 0
SIG: 4205465 hits: 0 fills: 0
SIG: 4205475 hits: 0 fills: 0
SIG: 4205480 hits: 0 fills: 0
SIG: 4205499 hits: 0 fills: 0
SIG: 4205504 hits: 0 fills: 0
SIG: 4205514 hits: 0 fills: 0
SIG: 4205519 hits: 0 fills: 0
SIG: 4205569 hits: 0 fills: 0
SIG: 4205789 hits: 0 fills: 0
SIG: 4207217 hits: 0 fills: 0
SIG: 4207237 hits: 0 fills: 0
SIG: 4207242 hits: 0 fills: 0
SIG: 4207298 hits: 0 fills: 0
SIG: 4207377 hits: 0 fills: 0
SIG: 4207424 hits: 0 fills: 0
SIG: 4207450 hits: 0 fills: 0
SIG: 4207456 hits: 0 fills: 0
SIG: 4207464 hits: 0 fills: 0
SIG: 4207470 hits: 0 fills: 0
SIG: 4207472 hits: 0 fills: 0
SIG: 4207477 hits: 0 fills: 0
SIG: 4207488 hits: 0 fills: 0
SIG: 4207552 hits: 0 fills: 52
SIG: 4207559 hits: 0 fills: 624
SIG: 4207602 hits: 0 fills: 0
SIG: 4207646 hits: 0 fills: 0
SIG: 4207676 hits: 0 fills: 0
SIG: 4207683 hits: 0 fills: 0
SIG: 4207695 hits: 0 fills: 0
SIG: 4207752 hits: 0 fills: 0
SIG: 4207812 hits: 0 fills: 28
SIG: 4207818 hits: 0 fills: 320
SIG: 4207854 hits: 0 fills: 0
SIG: 4207875 hits: 0 fills: 0
SIG: 4208010 hits: 0 fills: 0
SIG: 4208019 hits: 0 fills: 0
SIG: 4208112 hits: 0 fills: 0
SIG: 4208128 hits: 0 fills: 0
SIG: 4208196 hits: 0 fills: 0
SIG: 4208304 hits: 0 fills: 0
SIG: 4208312 hits: 0 fills: 0
SIG: 4208378 hits: 0 fills: 0
SIG: 4208382 hits: 0 fills: 0
SIG: 4208387 hits: 0 fills: 0
SIG: 4208427 hits: 0 fills: 0
SIG: 4208479 hits: 0 fills: 0
SIG: 4208514 hits: 0 fills: 0
SIG: 4208554 hits: 0 fills: 0
SIG: 4208576 hits: 0 fills: 0
SIG: 4208645 hits: 0 fills: 0
SIG: 4208673 hits: 0 fills: 0
SIG: 4208714 hits: 0 fills: 0
SIG: 4209424 hits: 0 fills: 0
SIG: 4209472 hits: 0 fills: 0
SIG: 4209536 hits: 0 fills: 0
SIG: 4209603 hits: 0 fills: 0
SIG: 4209666 hits: 0 fills: 0
SIG: 4209731 hits: 0 fills: 0
SIG: 4209792 hits: 0 fills: 0
SIG: 4209859 hits: 0 fills: 0
SIG: 4209924 hits: 0 fills: 0
SIG: 4209986 hits: 0 fills: 0
SIG: 4210085 hits: 0 fills: 0
SIG: 4210115 hits: 0 fills: 0
SIG: 4210178 hits: 0 fills: 0
SIG: 4210245 hits: 0 fills: 0
SIG: 4210306 hits: 0 fills: 0
SIG: 4210389 hits: 0 fills: 0
SIG: 4210435 hits: 0 fills: 0
SIG: 4210619 hits: 0 fills: 0
SIG: 4210627 hits: 0 fills: 0
SIG: 4210642 hits: 0 fills: 0
SIG: 4210688 hits: 0 fills: 0
1024 0
SIG: 4205221 hits: 0 fills: 0
SIG: 4205225 hits: 0 fills: 0
SIG: 4205231 hits: 0 fills: 0
SIG: 4205234 hits: 0 fills: 0
SIG: 4205247 hits: 0 fills: 0
SIG: 4205264 hits: 0 fills: 0
SIG: 4205268 hits: 1 fills: 0
SIG: 4205281 hits: 0 fills: 0
SIG: 4205298 hits: 0 fills: 0
SIG: 4205311 hits: 0 fills: 0
SIG: 4205315 hits: 0 fills: 1
SIG: 4205319 hits: 0 fills: 0
SIG: 4205336 hits: 0 fills: 0
SIG: 4205349 hits: 0 fills: 0
SIG: 4205366 hits: 0 fills: 0
SIG: 4205370 hits: 0 fills: 0
SIG: 4205380 hits: 0 fills: 0
SIG: 4205387 hits: 0 fills: 0
SIG: 4205391 hits: 0 fills: 0
SIG: 4205408 hits: 0 fills: 0
SIG: 4205412 hits: 0 fills: 0
SIG: 4205429 hits: 0 fills: 0
SIG: 4205433 hits: 0 fills: 0
SIG: 4205443 hits: 0 fills: 0
SIG: 4205460 hits: 0 fills: 0
SIG: 4205465 hits: 0 fills: 0
SIG: 4205475 hits: 0 fills: 2
SIG: 4205480 hits: 0 fills: 2
SIG: 4205499 hits: 0 fills: 0
SIG: 4205504 hits: 0 fills: 0
SIG: 4205514 hits: 0 fills: 0
SIG: 4205519 hits: 0 fills: 0
SIG: 4205569 hits: 0 fills: 0
SIG: 4205789 hits: 0 fills: 0
SIG: 4207217 hits: 0 fills: 0
SIG: 4207237 hits: 0 fills: 0
SIG: 4207242 hits: 1 fills: 0
SIG: 4207298 hits: 0 fills: 0
SIG: 4207377 hits: 0 fills: 0
SIG: 4207424 hits: 0 fills: 0
SIG: 4207450 hits: 0 fills: 0
SIG: 4207456 hits: 0 fills: 0
SIG: 4207464 hits: 0 fills: 0
SIG: 4207470 hits: 1 fills: 0
SIG: 4207472 hits: 0 fills: 0
SIG: 4207477 hits: 0 fills: 0
SIG: 4207488 hits: 0 fills: 0
SIG: 4207552 hits: 0 fills: 56
SIG: 4207559 hits: 9 fills: 713
SIG: 4207602 hits: 0 fills: 0
SIG: 4207646 hits: 0 fills: 0
SIG: 4207676 hits: 0 fills: 0
SIG: 4207683 hits: 0 fills: 0
SIG: 4207695 hits: 0 fills: 0
SIG: 4207752 hits: 0 fills: 0
SIG: 4207812 hits: 13 fills: 19
SIG: 4207818 hits: 0 fills: 231
SIG: 4207854 hits: 0 fills: 0
SIG: 4207875 hits: 0 fills: 0
SIG: 4208010 hits: 0 fills: 0
SIG: 4208019 hits: 0 fills: 0
SIG: 4208112 hits: 0 fills: 0
SIG: 4208128 hits: 0 fills: 0
SIG: 4208196 hits: 0 fills: 0
SIG: 4208304 hits: 0 fills: 0
SIG: 4208312 hits: 0 fills: 0
SIG: 4208378 hits: 0 fills: 0
SIG: 4208382 hits: 0 fills: 0
SIG: 4208387 hits: 0 fills: 0
SIG: 4208427 hits: 0 fills: 0
SIG: 4208479 hits: 0 fills: 0
SIG: 4208514 hits: 0 fills: 0
SIG: 4208554 hits: 0 fills: 0
SIG: 4208576 hits: 0 fills: 0
SIG: 4208645 hits: 0 fills: 0
SIG: 4208673 hits: 0 fills: 0
SIG: 4208714 hits: 0 fills: 0
SIG: 4209424 hits: 0 fills: 0
SIG: 4209472 hits: 0 fills: 0
SIG: 4209536 hits: 0 fills: 0
SIG: 4209603 hits: 0 fills: 0
SIG: 4209666 hits: 0 fills: 0
SIG: 4209731 hits: 0 fills: 0
SIG: 4209792 hits: 0 fills: 0
SIG: 4209859 hits: 0 fills: 0
SIG: 4209924 hits: 0 fills: 0
SIG: 4209986 hits: 0 fills: 0
SIG: 4210085 hits: 0 fills: 0
SIG: 4210115 hits: 0 fills: 0
SIG: 4210178 hits: 0 fills: 0
SIG: 4210245 hits: 0 fills: 0
SIG: 4210306 hits: 0 fills: 0
SIG: 4210389 hits: 0 fills: 0
SIG: 4210435 hits: 0 fills: 0
SIG: 4210619 hits: 0 fills: 0
SIG: 4210627 hits: 0 fills: 0
SIG: 4210642 hits: 0 fills: 0
SIG: 4210688 hits: 0 fills: 0
1024 25
Heartbeat CPU 0 instructions: 1000002 cycles: 1565083 heartbeat IPC: 0.638945 cumulative IPC: 0.592207 (Simulation time: 0 hr 0 min 3 sec) 
SIG: 4205221 hits: 3 fills: 13
SIG: 4205225 hits: 1 fills: 4
SIG: 4205231 hits: 0 fills: 0
SIG: 4205234 hits: 0 fills: 0
SIG: 4205247 hits: 0 fills: 14
SIG: 4205251 hits: 0 fills: 9
SIG: 4205264 hits: 0 fills: 11
SIG: 4205268 hits: 0 fills: 4
SIG: 4205281 hits: 0 fills: 13
SIG: 4205285 hits: 0 fills: 7
SIG: 4205298 hits: 0 fills: 3
SIG: 4205302 hits: 0 fills: 6
SIG: 4205311 hits: 0 fills: 0
SIG: 4205315 hits: 1 fills: 6
SIG: 4205319 hits: 0 fills: 6
SIG: 4205332 hits: 0 fills: 11
SIG: 4205336 hits: 0 fills: 6
SIG: 4205349 hits: 0 fills: 7
SIG: 4205353 hits: 0 fills: 5
SIG: 4205366 hits: 0 fills: 2
SIG: 4205370 hits: 0 fills: 1
SIG: 4205380 hits: 0 fills: 0
SIG: 4205387 hits: 0 fills: 2
SIG: 4205391 hits: 0 fills: 3
SIG: 4205408 hits: 0 fills: 3
SIG: 4205412 hits: 0 fills: 2
SIG: 4205429 hits: 0 fills: 4
SIG: 4205433 hits: 0 fills: 0
SIG: 4205443 hits: 0 fills: 0
SIG: 4205460 hits: 0 fills: 5
SIG: 4205465 hits: 0 fills: 0
SIG: 4205475 hits: 3 fills: 345
SIG: 4205480 hits: 5 fills: 239
SIG: 4205499 hits: 0 fills: 5
SIG: 4205504 hits: 0 fills: 3
SIG: 4205514 hits: 0 fills: 6
SIG: 4205519 hits: 0 fills: 6
SIG: 4205553 hits: 1 fills: 5
SIG: 4205558 hits: 0 fills: 3
SIG: 4205569 hits: 0 fills: 0
SIG: 4205577 hits: 0 fills: 2
SIG: 4205582 hits: 0 fills: 1
SIG: 4205592 hits: 0 fills: 5
SIG: 4205597 hits: 0 fills: 2
SIG: 4205631 hits: 0 fills: 4
SIG: 4205636 hits: 0 fills: 1
SIG: 4205655 hits: 0 fills: 1
SIG: 4205671 hits: 0 fills: 1
SIG: 4205697 hits: 0 fills: 5
SIG: 4205789 hits: 0 fills: 0
SIG: 4207217 hits: 0 fills: 0
SIG: 4207237 hits: 0 fills: 0
SIG: 4207242 hits: 2 fills: 4
SIG: 4207298 hits: 0 fills: 0
SIG: 4207377 hits: 0 fills: 0
SIG: 4207424 hits: 0 fills: 0
SIG: 4207450 hits: 0 fills: 1
SIG: 4207456 hits: 0 fills: 6
SIG: 4207464 hits: 1 fills: 1
SIG: 4207470 hits: 0 fills: 1
SIG: 4207472 hits: 0 fills: 2
SIG: 4207477 hits: 0 fills: 0
SIG: 4207488 hits: 0 fills: 0
SIG: 4207552 hits: 5 fills: 2
SIG: 4207559 hits: 184 fills: 125
SIG: 4207602 hits: 0 fills: 0
SIG: 4207646 hits: 0 fills: 0
SIG: 4207676 hits: 0 fills: 0
SIG: 4207683 hits: 0 fills: 0
SIG: 4207695 hits: 0 fills: 0
SIG: 4207752 hits: 0 fills: 0
SIG: 4207812 hits: 48 fills: 5
SIG: 4207818 hits: 90 fills: 94
SIG: 4207854 hits: 0 fills: 0
SIG: 4207875 hits: 0 fills: 0
SIG: 4208010 hits: 0 fills: 0
SIG: 4208019 hits: 0 fills: 0
SIG: 4208112 hits: 0 fills: 0
SIG: 4208122 hits: 0 fills: 1
SIG: 4208128 hits: 0 fills: 0
SIG: 4208179 hits: 0 fills: 1
SIG: 4208196 hits: 0 fills: 0
SIG: 4208304 hits: 0 fills: 0
SIG: 4208312 hits: 0 fills: 0
SIG: 4208378 hits: 0 fills: 0
SIG: 4208382 hits: 0 fills: 0
SIG: 4208387 hits: 0 fills: 0
SIG: 4208427 hits: 0 fills: 0
SIG: 4208479 hits: 0 fills: 0
SIG: 4208514 hits: 0 fills: 0
SIG: 4208554 hits: 0 fills: 0
SIG: 4208576 hits: 0 fills: 0
SIG: 4208645 hits: 0 fills: 0
SIG: 4208673 hits: 0 fills: 0
SIG: 4208714 hits: 0 fills: 0
SIG: 4209424 hits: 0 fills: 0
SIG: 4209472 hits: 0 fills: 0
SIG: 4209536 hits: 0 fills: 0
SIG: 4209603 hits: 0 fills: 0
SIG: 4209666 hits: 0 fills: 0
SIG: 4209731 hits: 0 fills: 0
SIG: 4209792 hits: 0 fills: 0
SIG: 4209859 hits: 0 fills: 0
SIG: 4209924 hits: 0 fills: 0
SIG: 4209986 hits: 0 fills: 0
SIG: 4210085 hits: 0 fills: 0
SIG: 4210115 hits: 0 fills: 0
SIG: 4210178 hits: 0 fills: 0
SIG: 4210245 hits: 0 fills: 0
SIG: 4210306 hits: 0 fills: 0
SIG: 4210389 hits: 0 fills: 0
SIG: 4210435 hits: 0 fills: 0
SIG: 4210619 hits: 0 fills: 0
SIG: 4210627 hits: 0 fills: 0
SIG: 4210642 hits: 0 fills: 0
SIG: 4210688 hits: 0 fills: 0
1024 344
SIG: 4205221 hits: 0 fills: 0
SIG: 4205225 hits: 0 fills: 0
SIG: 4205231 hits: 0 fills: 0
SIG: 4205234 hits: 0 fills: 0
SIG: 4205247 hits: 0 fills: 1
SIG: 4205251 hits: 0 fills: 0
SIG: 4205264 hits: 0 fills: 0
SIG: 4205268 hits: 0 fills: 1
SIG: 4205281 hits: 0 fills: 0
SIG: 4205285 hits: 0 fills: 0
SIG: 4205298 hits: 0 fills: 0
SIG: 4205302 hits: 0 fills: 1
SIG: 4205311 hits: 0 fills: 0
SIG: 4205315 hits: 0 fills: 0
SIG: 4205319 hits: 0 fills: 0
SIG: 4205332 hits: 0 fills: 1
SIG: 4205336 hits: 0 fills: 1
SIG: 4205349 hits: 0 fills: 0
SIG: 4205353 hits: 0 fills: 1
SIG: 4205366 hits: 0 fills: 0
SIG: 4205370 hits: 0 fills: 0
SIG: 4205380 hits: 0 fills: 0
SIG: 4205387 hits: 0 fills: 0
SIG: 4205391 hits: 0 fills: 0
SIG: 4205408 hits: 0 fills: 0
SIG: 4205412 hits: 0 fills: 0
SIG: 4205429 hits: 0 fills: 0
SIG: 4205433 hits: 0 fills: 0
SIG: 4205443 hits: 0 fills: 0
SIG: 4205460 hits: 0 fills: 0
SIG: 4205465 hits: 0 fills: 0
SIG: 4205475 hits: 0 fills: 24
SIG: 4205480 hits: 2 fills: 17
SIG: 4205499 hits: 0 fills: 0
SIG: 4205504 hits: 0 fills: 0
SIG: 4205514 hits: 0 fills: 0
SIG: 4205519 hits: 0 fills: 0
SIG: 4205553 hits: 0 fills: 0
SIG: 4205558 hits: 0 fills: 1
SIG: 4205569 hits: 0 fills: 0
SIG: 4205577 hits: 0 fills: 0
SIG: 4205582 hits: 0 fills: 0
SIG: 4205592 hits: 0 fills: 2
SIG: 4205597 hits: 0 fills: 0
SIG: 4205631 hits: 0 fills: 0
SIG: 4205636 hits: 0 fills: 0
SIG: 4205655 hits: 0 fills: 0
SIG: 4205671 hits: 0 fills: 0
SIG: 4205697 hits: 0 fills: 0
SIG: 4205789 hits: 0 fills: 0
SIG: 4207217 hits: 0 fills: 0
SIG: 4207237 hits: 0 fills: 0
SIG: 4207242 hits: 0 fills: 0
SIG: 4207298 hits: 0 fills: 0
SIG: 4207377 hits: 0 fills: 0
SIG: 4207424 hits: 0 fills: 0
SIG: 4207450 hits: 1 fills: 0
SIG: 4207456 hits: 0 fills: 0
SIG: 4207464 hits: 0 fills: 0
SIG: 4207470 hits: 0 fills: 0
SIG: 4207472 hits: 0 fills: 0
SIG: 4207477 hits: 0 fills: 0
SIG: 4207488 hits: 0 fills: 0
SIG: 4207552 hits: 8 fills: 10
SIG: 4207559 hits: 30 fills: 170
SIG: 4207602 hits: 0 fills: 0
SIG: 4207646 hits: 0 fills: 0
SIG: 4207676 hits: 0 fills: 0
SIG: 4207683 hits: 0 fills: 0
SIG: 4207695 hits: 0 fills: 0
SIG: 4207752 hits: 0 fills: 0
SIG: 4207812 hits: 18 fills: 50
SIG: 4207818 hits: 21 fills: 744
SIG: 4207854 hits: 0 fills: 0
SIG: 4207875 hits: 0 fills: 0
SIG: 4208010 hits: 0 fills: 0
SIG: 4208019 hits: 0 fills: 0
SIG: 4208112 hits: 0 fills: 0
SIG: 4208122 hits: 0 fills: 0
SIG: 4208128 hits: 0 fills: 0
SIG: 4208179 hits: 0 fills: 0
SIG: 4208196 hits: 0 fills: 0
SIG: 4208304 hits: 0 fills: 0
SIG: 4208312 hits: 0 fills: 0
SIG: 4208378 hits: 0 fills: 0
SIG: 4208382 hits: 0 fills: 0
SIG: 4208387 hits: 0 fills: 0
SIG: 4208427 hits: 0 fills: 0
SIG: 4208479 hits: 0 fills: 0
SIG: 4208514 hits: 0 fills: 0
SIG: 4208554 hits: 0 fills: 0
SIG: 4208576 hits: 0 fills: 0
SIG: 4208645 hits: 0 fills: 0
SIG: 4208673 hits: 1 fills: 0
SIG: 4208714 hits: 0 fills: 0
SIG: 4209424 hits: 0 fills: 0
SIG: 4209472 hits: 0 fills: 0
SIG: 4209536 hits: 0 fills: 0
SIG: 4209603 hits: 0 fills: 0
SIG: 4209666 hits: 0 fills: 0
SIG: 4209731 hits: 0 fills: 0
SIG: 4209792 hits: 0 fills: 0
SIG: 4209859 hits: 0 fills: 0
SIG: 4209924 hits: 0 fills: 0
SIG: 4209986 hits: 0 fills: 0
SIG: 4210085 hits: 0 fills: 0
SIG: 4210115 hits: 0 fills: 0
SIG: 4210178 hits: 0 fills: 0
SIG: 4210245 hits: 0 fills: 0
SIG: 4210306 hits: 0 fills: 0
SIG: 4210389 hits: 0 fills: 0
SIG: 4210435 hits: 0 fills: 0
SIG: 4210619 hits: 0 fills: 0
SIG: 4210627 hits: 0 fills: 0
SIG: 4210642 hits: 0 fills: 0
SIG: 4210688 hits: 0 fills: 0
1024 81
SIG: 4205221 hits: 6 fills: 7
SIG: 4205225 hits: 1 fills: 4
SIG: 4205231 hits: 0 fills: 0
SIG: 4205234 hits: 0 fills: 0
SIG: 4205247 hits: 0 fills: 5
SIG: 4205251 hits: 0 fills: 2
SIG: 4205264 hits: 1 fills: 14
SIG: 4205268 hits: 0 fills: 11
SIG: 4205281 hits: 0 fills: 5
SIG: 4205285 hits: 0 fills: 4
SIG: 4205298 hits: 0 fills: 2
SIG: 4205302 hits: 0 fills: 3
SIG: 4205311 hits: 0 fills: 0
SIG: 4205315 hits: 1 fills: 1
SIG: 4205319 hits: 0 fills: 1
SIG: 4205332 hits: 2 fills: 3
SIG: 4205336 hits: 1 fills: 2
SIG: 4205349 hits: 1 fills: 2
SIG: 4205353 hits: 0 fills: 1
SIG: 4205366 hits: 0 fills: 3
SIG: 4205370 hits: 0 fills: 2
SIG: 4205380 hits: 0 fills: 0
SIG: 4205387 hits: 0 fills: 2
SIG: 4205391 hits: 0 fills: 2
SIG: 4205408 hits: 0 fills: 2
SIG: 4205412 hits: 0 fills: 1
SIG: 4205429 hits: 0 fills: 1
SIG: 4205433 hits: 0 fills: 0
SIG: 4205443 hits: 0 fills: 0
SIG: 4205460 hits: 0 fills: 0
SIG: 4205465 hits: 0 fills: 0
SIG: 4205475 hits: 14 fills: 169
SIG: 4205480 hits: 8 fills: 122
SIG: 4205499 hits: 0 fills: 1
SIG: 4205504 hits: 0 fills: 0
SIG: 4205514 hits: 0 fills: 1
SIG: 4205519 hits: 0 fills: 1
SIG: 4205553 hits: 0 fills: 2
SIG: 4205558 hits: 0 fills: 1
SIG: 4205569 hits: 0 fills: 0
SIG: 4205577 hits: 0 fills: 0
SIG: 4205582 hits: 0 fills: 0
SIG: 4205592 hits: 0 fills: 2
SIG: 4205597 hits: 0 fills: 0
SIG: 4205631 hits: 0 fills: 0
SIG: 4205636 hits: 0 fills: 0
SIG: 4205655 hits: 0 fills: 0
SIG: 4205666 hits: 0 fills: 1
SIG: 4205671 hits: 0 fills: 0
SIG: 4205697 hits: 0 fills: 0
SIG: 4205789 hits: 0 fills: 0
SIG: 4207217 hits: 0 fills: 0
SIG: 4207237 hits: 0 fills: 0
SIG: 4207242 hits: 0 fills: 0
SIG: 4207298 hits: 0 fills: 0
SIG: 4207377 hits: 0 fills: 0
SIG: 4207424 hits: 0 fills: 0
SIG: 4207450 hits: 0 fills: 2
SIG: 4207456 hits: 1 fills: 3
SIG: 4207464 hits: 1 fills: 2
SIG: 4207470 hits: 2 fills: 2
SIG: 4207472 hits: 0 fills: 1
SIG: 4207477 hits: 0 fills: 1
SIG: 4207488 hits: 0 fills: 0
SIG: 4207552 hits: 31 fills: 18
SIG: 4207559 hits: 159 fills: 190
SIG: 4207602 hits: 0 fills: 0
SIG: 4207646 hits: 0 fills: 0
SIG: 4207676 hits: 0 fills: 0
SIG: 4207683 hits: 0 fills: 0
SIG: 4207695 hits: 0 fills: 0
SIG: 4207752 hits: 0 fills: 0
SIG: 4207812 hits: 23 fills: 50
SIG: 4207818 hits: 71 fills: 375
SIG: 4207854 hits: 0 fills: 0
SIG: 4207875 hits: 0 fills: 0
SIG: 4208010 hits: 0 fills: 0
SIG: 4208019 hits: 0 fills: 0
SIG: 4208112 hits: 0 fills: 0
SIG: 4208122 hits: 0 fills: 0
SIG: 4208128 hits: 0 fills: 0
SIG: 4208179 hits: 0 fills: 0
SIG: 4208196 hits: 0 fills: 0
SIG: 4208304 hits: 0 fills: 0
SIG: 4208312 hits: 0 fills: 0
SIG: 4208378 hits: 0 fills: 0
SIG: 4208382 hits: 0 fills: 0
SIG: 4208387 hits: 0 fills: 0
SIG: 4208427 hits: 0 fills: 0
SIG: 4208479 hits: 0 fills: 0
SIG: 4208514 hits: 0 fills: 0
SIG: 4208554 hits: 0 fills: 0
SIG: 4208576 hits: 0 fills: 0
SIG: 4208645 hits: 0 fills: 0
SIG: 4208673 hits: 0 fills: 0
SIG: 4208714 hits: 0 fills: 0
SIG: 4209424 hits: 0 fills: 0
SIG: 4209472 hits: 0 fills: 0
SIG: 4209536 hits: 0 fills: 0
SIG: 4209603 hits: 0 fills: 0
SIG: 4209666 hits: 0 fills: 0
SIG: 4209731 hits: 0 fills: 0
SIG: 4209792 hits: 0 fills: 0
SIG: 4209859 hits: 0 fills: 0
SIG: 4209924 hits: 0 fills: 0
SIG: 4209986 hits: 0 fills: 0
SIG: 4210085 hits: 0 fills: 0
SIG: 4210115 hits: 0 fills: 0
SIG: 4210178 hits: 0 fills: 0
SIG: 4210245 hits: 0 fills: 0
SIG: 4210306 hits: 0 fills: 0
SIG: 4210389 hits: 0 fills: 0
SIG: 4210435 hits: 0 fills: 0
SIG: 4210619 hits: 0 fills: 0
SIG: 4210627 hits: 0 fills: 0
SIG: 4210642 hits: 0 fills: 0
SIG: 4210688 hits: 0 fills: 0
1024 323
Heartbeat CPU 0 instructions: 2000001 cycles: 3243549 heartbeat IPC: 0.595782 cumulative IPC: 0.594083 (Simulation time: 0 hr 0 min 6 sec) 
SIG: 4205221 hits: 4 fills: 4
SIG: 4205225 hits: 2 fills: 3
SIG: 4205231 hits: 0 fills: 0
SIG: 4205234 hits: 0 fills: 0
SIG: 4205247 hits: 5 fills: 1
SIG: 4205251 hits: 1 fills: 1
SIG: 4205264 hits: 3 fills: 3
SIG: 4205268 hits: 0 fills: 0
SIG: 4205281 hits: 1 fills: 1
SIG: 4205285 hits: 0 fills: 2
SIG: 4205298 hits: 0 fills: 0
SIG: 4205302 hits: 0 fills: 0
SIG: 4205311 hits: 0 fills: 0
SIG: 4205315 hits: 5 fills: 2
SIG: 4205319 hits: 1 fills: 2
SIG: 4205332 hits: 1 fills: 2
SIG: 4205336 hits: 0 fills: 0
SIG: 4205349 hits: 0 fills: 2
SIG: 4205353 hits: 0 fills: 0
SIG: 4205366 hits: 0 fills: 0
SIG: 4205370 hits: 0 fills: 0
SIG: 4205380 hits: 0 fills: 0
SIG: 4205387 hits: 0 fills: 1
SIG: 4205391 hits: 1 fills: 0
SIG: 4205408 hits: 0 fills: 2
SIG: 4205412 hits: 0 fills: 2
SIG: 4205429 hits: 0 fills: 0
SIG: 4205433 hits: 0 fills: 2
SIG: 4205443 hits: 0 fills: 0
SIG: 4205460 hits: 0 fills: 0
SIG: 4205465 hits: 1 fills: 0
SIG: 4205475 hits: 13 fills: 80
SIG: 4205480 hits: 6 fills: 62
SIG: 4205499 hits: 3 fills: 0
SIG: 4205504 hits: 0 fills: 0
SIG: 4205514 hits: 0 fills: 0
SIG: 4205519 hits: 0 fills: 1
SIG: 4205553 hits: 0 fills: 1
SIG: 4205558 hits: 0 fills: 1
SIG: 4205569 hits: 0 fills: 0
SIG: 4205577 hits: 0 fills: 0
SIG: 4205582 hits: 0 fills: 0
SIG: 4205592 hits: 0 fills: 0
SIG: 4205597 hits: 0 fills: 0
SIG: 4205631 hits: 0 fills: 0
SIG: 4205636 hits: 0 fills: 0
SIG: 4205655 hits: 0 fills: 0
SIG: 4205666 hits: 0 fills: 0
SIG: 4205671 hits: 0 fills: 0
SIG: 4205697 hits: 0 fills: 0
SIG: 4205728 hits: 0 fills: 1
SIG: 4205789 hits: 0 fills: 0
SIG: 4207217 hits: 0 fills: 0
SIG: 4207237 hits: 0 fills: 0
SIG: 4207242 hits: 4 fills: 1
SIG: 4207298 hits: 0 fills: 0
SIG: 4207377 hits: 0 fills: 0
SIG: 4207424 hits: 0 fills: 0
SIG: 4207450 hits: 1 fills: 3
SIG: 4207456 hits: 1 fills: 2
SIG: 4207464 hits: 1 fills: 3
SIG: 4207470 hits: 0 fills: 2
SIG: 4207472 hits: 1 fills: 1
SIG: 4207477 hits: 0 fills: 1
SIG: 4207488 hits: 0 fills: 0
SIG: 4207552 hits: 52 fills: 66
SIG: 4207559 hits: 387 fills: 309
SIG: 4207602 hits: 0 fills: 0
SIG: 4207646 hits: 0 fills: 0
SIG: 4207676 hits: 0 fills: 0
SIG: 4207683 hits: 0 fills: 0
SIG: 4207695 hits: 0 fills: 0
SIG: 4207752 hits: 0 fills: 0
SIG: 4207812 hits: 54 fills: 79
SIG: 4207818 hits: 154 fills: 379
SIG: 4207854 hits: 0 fills: 0
SIG: 4207875 hits: 0 fills: 0
SIG: 4208010 hits: 0 fills: 0
SIG: 4208019 hits: 0 fills: 0
SIG: 4208112 hits: 0 fills: 0
SIG: 4208122 hits: 0 fills: 1
SIG: 4208128 hits: 0 fills: 0
SIG: 4208179 hits: 0 fills: 1
SIG: 4208196 hits: 0 fills: 0
SIG: 4208304 hits: 0 fills: 0
SIG: 4208312 hits: 1 fills: 0
SIG: 4208378 hits: 0 fills: 0
SIG: 4208382 hits: 0 fills: 0
SIG: 4208387 hits: 0 fills: 0
SIG: 4208427 hits: 0 fills: 0
SIG: 4208479 hits: 0 fills: 0
SIG: 4208514 hits: 0 fills: 0
SIG: 4208554 hits: 0 fills: 0
SIG: 4208576 hits: 0 fills: 0
SIG: 4208645 hits: 0 fills: 0
SIG: 4208673 hits: 0 fills: 0
SIG: 4208714 hits: 0 fills: 0
SIG: 4209424 hits: 0 fills: 0
SIG: 4209472 hits: 0 fills: 0
SIG: 4209536 hits: 0 fills: 0
SIG: 4209603 hits: 0 fills: 0
SIG: 4209666 hits: 0 fills: 0
SIG: 4209731 hits: 0 fills: 0
SIG: 4209792 hits: 0 fills: 0
SIG: 4209859 hits: 0 fills: 0
SIG: 4209924 hits: 0 fills: 0
SIG: 4209986 hits: 0 fills: 0
SIG: 4210085 hits: 0 fills: 0
SIG: 4210115 hits: 0 fills: 0
SIG: 4210178 hits: 0 fills: 0
SIG: 4210245 hits: 0 fills: 0
SIG: 4210306 hits: 0 fills: 0
SIG: 4210389 hits: 0 fills: 0
SIG: 4210435 hits: 0 fills: 0
SIG: 4210619 hits: 0 fills: 0
SIG: 4210627 hits: 0 fills: 0
SIG: 4210642 hits: 0 fills: 0
SIG: 4210688 hits: 0 fills: 0
1024 703
SIG: 4205221 hits: 15 fills: 2
SIG: 4205225 hits: 4 fills: 1
SIG: 4205231 hits: 0 fills: 0
SIG: 4205234 hits: 0 fills: 0
SIG: 4205247 hits: 2 fills: 4
SIG: 4205251 hits: 0 fills: 2
SIG: 4205264 hits: 2 fills: 2
SIG: 4205268 hits: 2 fills: 0
SIG: 4205281 hits: 5 fills: 3
SIG: 4205285 hits: 2 fills: 1
SIG: 4205298 hits: 1 fills: 2
SIG: 4205302 hits: 0 fills: 2
SIG: 4205311 hits: 0 fills: 0
SIG: 4205315 hits: 4 fills: 2
SIG: 4205319 hits: 2 fills: 1
SIG: 4205332 hits: 1 fills: 0
SIG: 4205336 hits: 0 fills: 0
SIG: 4205349 hits: 1 fills: 0
SIG: 4205353 hits: 1 fills: 1
SIG: 4205366 hits: 2 fills: 0
SIG: 4205370 hits: 1 fills: 1
SIG: 4205380 hits: 0 fills: 0
SIG: 4205387 hits: 2 fills: 1
SIG: 4205391 hits: 0 fills: 0
SIG: 4205408 hits: 1 fills: 0
SIG: 4205412 hits: 1 fills: 1
SIG: 4205429 hits: 0 fills: 0
SIG: 4205433 hits: 1 fills: 0
SIG: 4205443 hits: 0 fills: 0
SIG: 4205460 hits: 2 fills: 0
SIG: 4205465 hits: 1 fills: 0
SIG: 4205475 hits: 32 fills: 147
SIG: 4205480 hits: 21 fills: 116
SIG: 4205499 hits: 0 fills: 0
SIG: 4205504 hits: 0 fills: 0
SIG: 4205514 hits: 0 fills: 1
SIG: 4205519 hits: 1 fills: 2
SIG: 4205553 hits: 0 fills: 0
SIG: 4205558 hits: 0 fills: 0
SIG: 4205569 hits: 0 fills: 0
SIG: 4205577 hits: 0 fills: 0
SIG: 4205582 hits: 0 fills: 0
SIG: 4205592 hits: 0 fills: 0
SIG: 4205597 hits: 0 fills: 0
SIG: 4205631 hits: 0 fills: 0
SIG: 4205636 hits: 0 fills: 0
SIG: 4205655 hits: 0 fills: 0
SIG: 4205666 hits: 0 fills: 0
SIG: 4205671 hits: 0 fills: 0
SIG: 4205697 hits: 0 fills: 1
SIG: 4205728 hits: 0 fills: 0
SIG: 4205789 hits: 0 fills: 0
SIG: 4207217 hits: 0 fills: 0
SIG: 4207237 hits: 0 fills: 0
SIG: 4207242 hits: 6 fills: 9
SIG: 4207298 hits: 0 fills: 0
SIG: 4207377 hits: 0 fills: 0
SIG: 4207424 hits: 0 fills: 0
SIG: 4207450 hits: 4 fills: 0
SIG: 4207456 hits: 4 fills: 1
SIG: 4207464 hits: 6 fills: 0
SIG: 4207470 hits: 6 fills: 0
SIG: 4207472 hits: 1 fills: 1
SIG: 4207477 hits: 0 fills: 0
SIG: 4207488 hits: 0 fills: 0
SIG: 4207552 hits: 185 fills: 1
SIG: 4207559 hits: 1261 fills: 25
SIG: 4207602 hits: 0 fills: 0
SIG: 4207646 hits: 0 fills: 0
SIG: 4207676 hits: 0 fills: 0
SIG: 4207683 hits: 0 fills: 0
SIG: 4207695 hits: 0 fills: 0
SIG: 4207752 hits: 0 fills: 0
SIG: 4207812 hits: 151 fills: 2
SIG: 4207818 hits: 590 fills: 15
SIG: 4207854 hits: 0 fills: 0
SIG: 4207875 hits: 0 fills: 0
SIG: 4208010 hits: 0 fills: 0
SIG: 4208019 hits: 0 fills: 0
SIG: 4208112 hits: 0 fills: 0
SIG: 4208122 hits: 0 fills: 0
SIG: 4208128 hits: 0 fills: 0
SIG: 4208179 hits: 1 fills: 0
SIG: 4208196 hits: 0 fills: 0
SIG: 4208304 hits: 0 fills: 0
SIG: 4208312 hits: 0 fills: 0
SIG: 4208378 hits: 0 fills: 0
SIG: 4208382 hits: 0 fills: 0
SIG: 4208387 hits: 0 fills: 0
SIG: 4208427 hits: 2 fills: 0
SIG: 4208479 hits: 0 fills: 0
SIG: 4208514 hits: 0 fills: 0
SIG: 4208554 hits: 1 fills: 0
SIG: 4208576 hits: 0 fills: 0
SIG: 4208645 hits: 0 fills: 0
SIG: 4208673 hits: 1 fills: 0
SIG: 4208714 hits: 0 fills: 0
SIG: 4208734 hits: 0 fills: 1
SIG: 4208768 hits: 0 fills: 1
SIG: 4208778 hits: 0 fills: 255
SIG: 4208787 hits: 3 fills: 16
SIG: 4208807 hits: 4 fills: 17
SIG: 4208839 hits: 0 fills: 1
SIG: 4208875 hits: 0 fills: 23
SIG: 4208894 hits: 0 fills: 176
SIG: 4208899 hits: 0 fills: 2
SIG: 4208934 hits: 17 fills: 185
SIG: 4209424 hits: 0 fills: 0
SIG: 4209472 hits: 0 fills: 0
SIG: 4209536 hits: 0 fills: 0
SIG: 4209603 hits: 0 fills: 0
SIG: 4209666 hits: 0 fills: 0
SIG: 4209731 hits: 0 fills: 0
SIG: 4209792 hits: 0 fills: 0
SIG: 4209859 hits: 0 fills: 0
SIG: 4209924 hits: 0 fills: 0
SIG: 4209986 hits: 0 fills: 0
SIG: 4210085 hits: 0 fills: 0
SIG: 4210115 hits: 0 fills: 0
SIG: 4210178 hits: 0 fills: 0
SIG: 4210245 hits: 0 fills: 0
SIG: 4210306 hits: 0 fills: 0
SIG: 4210389 hits: 0 fills: 0
SIG: 4210435 hits: 0 fills: 0
SIG: 4210619 hits: 0 fills: 0
SIG: 4210627 hits: 0 fills: 0
SIG: 4210642 hits: 0 fills: 0
SIG: 4210688 hits: 0 fills: 0
1024 2350
SIG: 4205221 hits: 19 fills: 0
SIG: 4205225 hits: 2 fills: 0
SIG: 4205231 hits: 0 fills: 0
SIG: 4205234 hits: 1 fills: 0
SIG: 4205247 hits: 9 fills: 0
SIG: 4205251 hits: 4 fills: 0
SIG: 4205264 hits: 13 fills: 0
SIG: 4205268 hits: 6 fills: 0
SIG: 4205281 hits: 7 fills: 0
SIG: 4205285 hits: 5 fills: 0
SIG: 4205298 hits: 2 fills: 0
SIG: 4205302 hits: 4 fills: 0
SIG: 4205311 hits: 0 fills: 0
SIG: 4205315 hits: 6 fills: 0
SIG: 4205319 hits: 5 fills: 0
SIG: 4205332 hits: 8 fills: 0
SIG: 4205336 hits: 4 fills: 0
SIG: 4205349 hits: 7 fills: 0
SIG: 4205353 hits: 5 fills: 0
SIG: 4205366 hits: 2 fills: 0
SIG: 4205370 hits: 2 fills: 0
SIG: 4205380 hits: 0 fills: 0
SIG: 4205387 hits: 3 fills: 0
SIG: 4205391 hits: 2 fills: 0
SIG: 4205408 hits: 4 fills: 0
SIG: 4205412 hits: 1 fills: 0
SIG: 4205429 hits: 3 fills: 0
SIG: 4205433 hits: 1 fills: 0
SIG: 4205443 hits: 0 fills: 0
SIG: 4205460 hits: 3 fills: 0
SIG: 4205465 hits: 0 fills: 0
SIG: 4205475 hits: 0 fills: 0
SIG: 4205480 hits: 0 fills: 0
SIG: 4205499 hits: 5 fills: 0
SIG: 4205504 hits: 2 fills: 0
SIG: 4205514 hits: 0 fills: 0
SIG: 4205519 hits: 0 fills: 0
SIG: 4205553 hits: 0 fills: 0
SIG: 4205558 hits: 0 fills: 0
SIG: 4205569 hits: 0 fills: 0
SIG: 4205577 hits: 2 fills: 0
SIG: 4205582 hits: 1 fills: 0
SIG: 4205592 hits: 0 fills: 0
SIG: 4205597 hits: 0 fills: 0
SIG: 4205631 hits: 0 fills: 0
SIG: 4205636 hits: 0 fills: 0
SIG: 4205655 hits: 1 fills: 0
SIG: 4205666 hits: 0 fills: 0
SIG: 4205671 hits: 0 fills: 0
SIG: 4205697 hits: 0 fills: 0
SIG: 4205728 hits: 0 fills: 0
SIG: 4205789 hits: 0 fills: 0
SIG: 4207217 hits: 0 fills: 0
SIG: 4207237 hits: 0 fills: 0
SIG: 4207242 hits: 5 fills: 0
SIG: 4207298 hits: 0 fills: 0
SIG: 4207377 hits: 0 fills: 0
SIG: 4207424 hits: 0 fills: 0
SIG: 4207450 hits: 7 fills: 0
SIG: 4207456 hits: 4 fills: 0
SIG: 4207464 hits: 6 fills: 0
SIG: 4207470 hits: 4 fills: 0
SIG: 4207472 hits: 4 fills: 0
SIG: 4207477 hits: 1 fills: 0
SIG: 4207488 hits: 0 fills: 0
SIG: 4207552 hits: 76 fills: 0
SIG: 4207559 hits: 891 fills: 0
SIG: 4207602 hits: 0 fills: 0
SIG: 4207646 hits: 0 fills: 0
SIG: 4207676 hits: 1 fills: 0
SIG: 4207683 hits: 0 fills: 0
SIG: 4207695 hits: 1 fills: 0
SIG: 4207752 hits: 0 fills: 0
SIG: 4207812 hits: 173 fills: 0
SIG: 4207818 hits: 1448 fills: 0
SIG: 4207854 hits: 0 fills: 0
SIG: 4207875 hits: 0 fills: 0
SIG: 4208010 hits: 0 fills: 0
SIG: 4208019 hits: 0 fills: 0
SIG: 4208112 hits: 0 fills: 0
SIG: 4208122 hits: 3 fills: 0
SIG: 4208128 hits: 0 fills: 0
SIG: 4208179 hits: 2 fills: 0
SIG: 4208196 hits: 0 fills: 0
SIG: 4208304 hits: 1 fills: 0
SIG: 4208312 hits: 0 fills: 0
SIG: 4208378 hits: 0 fills: 0
SIG: 4208382 hits: 1 fills: 0
SIG: 4208387 hits: 0 fills: 0
SIG: 4208427 hits: 0 fills: 0
SIG: 4208479 hits: 0 fills: 0
SIG: 4208514 hits: 0 fills: 0
SIG: 4208554 hits: 0 fills: 0
SIG: 4208576 hits: 0 fills: 0
SIG: 4208645 hits: 0 fills: 0
SIG: 4208673 hits: 0 fills: 0
SIG: 4208714 hits: 0 fills: 0
SIG: 4208734 hits: 0 fills: 0
SIG: 4208768 hits: 0 fills: 0
SIG: 4208778 hits: 0 fills: 0
SIG: 4208787 hits: 14 fills: 0
SIG: 4208807 hits: 10 fills: 0
SIG: 4208839 hits: 0 fills: 0
SIG: 4208875 hits: 0 fills: 152
SIG: 4208894 hits: 41 fills: 629
SIG: 4208899 hits: 0 fills: 0
SIG: 4208934 hits: 205 fills: 243
SIG: 4209424 hits: 0 fills: 0
SIG: 4209472 hits: 0 fills: 0
SIG: 4209536 hits: 0 fills: 0
SIG: 4209603 hits: 0 fills: 0
SIG: 4209666 hits: 0 fills: 0
SIG: 4209731 hits: 0 fills: 0
SIG: 4209792 hits: 0 fills: 0
SIG: 4209859 hits: 0 fills: 0
SIG: 4209924 hits: 0 fills: 0
SIG: 4209986 hits: 0 fills: 0
SIG: 4210085 hits: 0 fills: 0
SIG: 4210115 hits: 0 fills: 0
SIG: 4210178 hits: 0 fills: 0
SIG: 4210245 hits: 0 fills: 0
SIG: 4210306 hits: 0 fills: 0
SIG: 4210389 hits: 0 fills: 0
SIG: 4210435 hits: 0 fills: 0
SIG: 4210619 hits: 0 fills: 0
SIG: 4210627 hits: 0 fills: 0
SIG: 4210642 hits: 1 fills: 0
SIG: 4210688 hits: 0 fills: 0
1024 3038
SIG: 4205221 hits: 11 fills: 0
SIG: 4205225 hits: 5 fills: 0
SIG: 4205231 hits: 0 fills: 0
SIG: 4205234 hits: 0 fills: 0
SIG: 4205247 hits: 6 fills: 0
SIG: 4205251 hits: 1 fills: 0
SIG: 4205264 hits: 8 fills: 0
SIG: 4205268 hits: 2 fills: 0
SIG: 4205281 hits: 2 fills: 0
SIG: 4205285 hits: 2 fills: 0
SIG: 4205298 hits: 0 fills: 0
SIG: 4205302 hits: 1 fills: 0
SIG: 4205311 hits: 0 fills: 0
SIG: 4205315 hits: 4 fills: 0
SIG: 4205319 hits: 1 fills: 0
SIG: 4205332 hits: 4 fills: 0
SIG: 4205336 hits: 2 fills: 0
SIG: 4205349 hits: 2 fills: 0
SIG: 4205353 hits: 2 fills: 0
SIG: 4205366 hits: 1 fills: 0
SIG: 4205370 hits: 0 fills: 0
SIG: 4205380 hits: 0 fills: 0
SIG: 4205387 hits: 1 fills: 0
SIG: 4205391 hits: 1 fills: 0
SIG: 4205408 hits: 1 fills: 0
SIG: 4205412 hits: 0 fills: 0
SIG: 4205429 hits: 1 fills: 0
SIG: 4205433 hits: 0 fills: 0
SIG: 4205443 hits: 0 fills: 0
SIG: 4205460 hits: 0 fills: 0
SIG: 4205465 hits: 0 fills: 0
SIG: 4205475 hits: 45 fills: 0
SIG: 4205480 hits: 28 fills: 0
SIG: 4205499 hits: 2 fills: 0
SIG: 4205504 hits: 0 fills: 0
SIG: 4205514 hits: 0 fills: 0
SIG: 4205519 hits: 0 fills: 0
SIG: 4205553 hits: 1 fills: 0
SIG: 4205558 hits: 0 fills: 0
SIG: 4205569 hits: 0 fills: 0
SIG: 4205577 hits: 1 fills: 0
SIG: 4205582 hits: 0 fills: 0
SIG: 4205592 hits: 2 fills: 0
SIG: 4205597 hits: 0 fills: 0
SIG: 4205631 hits: 0 fills: 0
SIG: 4205636 hits: 0 fills: 0
SIG: 4205655 hits: 1 fills: 0
SIG: 4205666 hits: 0 fills: 0
SIG: 4205671 hits: 0 fills: 0
SIG: 4205697 hits: 1 fills: 0
SIG: 4205728 hits: 0 fills: 0
SIG: 4205789 hits: 0 fills: 0
SIG: 4207217 hits: 0 fills: 0
SIG: 4207237 hits: 0 fills: 0
SIG: 4207242 hits: 2 fills: 0
SIG: 4207298 hits: 0 fills: 0
SIG: 4207377 hits: 0 fills: 0
SIG: 4207424 hits: 0 fills: 0
SIG: 4207450 hits: 2 fills: 0
SIG: 4207456 hits: 1 fills: 0
SIG: 4207464 hits: 1 fills: 0
SIG: 4207470 hits: 1 fills: 0
SIG: 4207472 hits: 0 fills: 0
SIG: 4207477 hits: 0 fills: 0
SIG: 4207488 hits: 0 fills: 0
SIG: 4207552 hits: 73 fills: 0
SIG: 4207559 hits: 700 fills: 0
SIG: 4207602 hits: 0 fills: 0
SIG: 4207646 hits: 0 fills: 0
SIG: 4207676 hits: 0 fills: 0
SIG: 4207683 hits: 1 fills: 0
SIG: 4207695 hits: 0 fills: 0
SIG: 4207752 hits: 0 fills: 0
SIG: 4207812 hits: 51 fills: 0
SIG: 4207818 hits: 826 fills: 0
SIG: 4207854 hits: 0 fills: 0
SIG: 4207875 hits: 0 fills: 0
SIG: 4208010 hits: 0 fills: 0
SIG: 4208019 hits: 0 fills: 0
SIG: 4208112 hits: 0 fills: 0
SIG: 4208122 hits: 1 fills: 0
SIG: 4208128 hits: 0 fills: 0
SIG: 4208179 hits: 1 fills: 0
SIG: 4208196 hits: 0 fills: 0
SIG: 4208304 hits: 0 fills: 0
SIG: 4208312 hits: 0 fills: 0
SIG: 4208378 hits: 0 fills: 0
SIG: 4208382 hits: 0 fills: 0
SIG: 4208387 hits: 0 fills: 0
SIG: 4208427 hits: 0 fills: 0
SIG: 4208479 hits: 0 fills: 0
SIG: 4208514 hits: 0 fills: 0
SIG: 4208554 hits: 0 fills: 0
SIG: 4208576 hits: 0 fills: 0
SIG: 4208645 hits: 0 fills: 0
SIG: 4208673 hits: 1 fills: 0
SIG: 4208714 hits: 0 fills: 0
SIG: 4208734 hits: 0 fills: 0
SIG: 4208768 hits: 0 fills: 0
SIG: 4208778 hits: 308 fills: 0
SIG: 4208787 hits: 3 fills: 0
SIG: 4208807 hits: 7 fills: 0
SIG: 4208839 hits: 0 fills: 0
SIG: 4208875 hits: 0 fills: 3
SIG: 4208894 hits: 74 fills: 25
SIG: 4208899 hits: 0 fills: 0
SIG: 4208934 hits: 275 fills: 83
SIG: 4208962 hits: 0 fills: 1
SIG: 4209015 hits: 3 fills: 47
SIG: 4209024 hits: 0 fills: 1
SIG: 4209034 hits: 0 fills: 123
SIG: 4209074 hits: 18 fills: 114
SIG: 4209088 hits: 0 fills: 1
SIG: 4209153 hits: 0 fills: 1
SIG: 4209217 hits: 0 fills: 1
SIG: 4209282 hits: 0 fills: 1
SIG: 4209285 hits: 0 fills: 622
SIG: 4209299 hits: 0 fills: 1
SIG: 4209424 hits: 0 fills: 0
SIG: 4209472 hits: 0 fills: 0
SIG: 4209536 hits: 0 fills: 0
SIG: 4209603 hits: 0 fills: 0
SIG: 4209666 hits: 0 fills: 0
SIG: 4209731 hits: 0 fills: 0
SIG: 4209792 hits: 0 fills: 0
SIG: 4209859 hits: 0 fills: 0
SIG: 4209924 hits: 0 fills: 0
SIG: 4209986 hits: 0 fills: 0
SIG: 4210085 hits: 0 fills: 0
SIG: 4210115 hits: 0 fills: 0
SIG: 4210178 hits: 0 fills: 0
SIG: 4210245 hits: 0 fills: 0
SIG: 4210306 hits: 0 fills: 0
SIG: 4210389 hits: 0 fills: 0
SIG: 4210435 hits: 0 fills: 0
SIG: 4210619 hits: 0 fills: 0
SIG: 4210627 hits: 0 fills: 0
SIG: 4210642 hits: 1 fills: 0
SIG: 4210688 hits: 0 fills: 0
1024 2489
SIG: 4205221 hits: 0 fills: 0
SIG: 4205225 hits: 0 fills: 0
SIG: 4205231 hits: 0 fills: 0
SIG: 4205234 hits: 0 fills: 0
SIG: 4205247 hits: 0 fills: 0
SIG: 4205251 hits: 0 fills: 0
SIG: 4205264 hits: 0 fills: 0
SIG: 4205268 hits: 0 fills: 0
SIG: 4205281 hits: 0 fills: 0
SIG: 4205285 hits: 0 fills: 0
SIG: 4205298 hits: 0 fills: 0
SIG: 4205302 hits: 0 fills: 0
SIG: 4205311 hits: 0 fills: 0
SIG: 4205315 hits: 0 fills: 0
SIG: 4205319 hits: 0 fills: 0
SIG: 4205332 hits: 0 fills: 0
SIG: 4205336 hits: 0 fills: 0
SIG: 4205349 hits: 0 fills: 0
SIG: 4205353 hits: 0 fills: 0
SIG: 4205366 hits: 0 fills: 0
SIG: 4205370 hits: 0 fills: 0
SIG: 4205380 hits: 0 fills: 0
SIG: 4205387 hits: 0 fills: 0
SIG: 4205391 hits: 0 fills: 0
SIG: 4205408 hits: 0 fills: 0
SIG: 4205412 hits: 0 fills: 0
SIG: 4205429 hits: 0 fills: 0
SIG: 4205433 hits: 0 fills: 0
SIG: 4205443 hits: 0 fills: 0
SIG: 4205460 hits: 0 fills: 0
SIG: 4205465 hits: 0 fills: 0
SIG: 4205475 hits: 125 fills: 0
SIG: 4205480 hits: 105 fills: 0
SIG: 4205499 hits: 0 fills: 0
SIG: 4205504 hits: 0 fills: 0
SIG: 4205514 hits: 0 fills: 0
SIG: 4205519 hits: 1 fills: 0
SIG: 4205553 hits: 0 fills: 0
SIG: 4205558 hits: 2 fills: 0
SIG: 4205569 hits: 0 fills: 0
SIG: 4205577 hits: 0 fills: 0
SIG: 4205582 hits: 0 fills: 0
SIG: 4205592 hits: 0 fills: 0
SIG: 4205597 hits: 0 fills: 0
SIG: 4205631 hits: 1 fills: 0
SIG: 4205636 hits: 0 fills: 0
SIG: 4205655 hits: 0 fills: 0
SIG: 4205666 hits: 0 fills: 0
SIG: 4205671 hits: 0 fills: 0
SIG: 4205697 hits: 0 fills: 0
SIG: 4205728 hits: 0 fills: 0
SIG: 4205789 hits: 0 fills: 0
SIG: 4207217 hits: 0 fills: 0
SIG: 4207237 hits: 0 fills: 0
SIG: 4207242 hits: 0 fills: 0
SIG: 4207298 hits: 0 fills: 0
SIG: 4207377 hits: 0 fills: 0
SIG: 4207424 hits: 0 fills: 0
SIG: 4207450 hits: 0 fills: 0
SIG: 4207456 hits: 0 fills: 0
SIG: 4207464 hits: 0 fills: 0
SIG: 4207470 hits: 0 fills: 0
SIG: 4207472 hits: 0 fills: 0
SIG: 4207477 hits: 0 fills: 0
SIG: 4207488 hits: 0 fills: 0
SIG: 4207552 hits: 6 fills: 0
SIG: 4207559 hits: 0 fills: 0
SIG: 4207602 hits: 0 fills: 0
SIG: 4207646 hits: 0 fills: 0
SIG: 4207676 hits: 0 fills: 0
SIG: 4207683 hits: 0 fills: 0
SIG: 4207695 hits: 0 fills: 0
SIG: 4207752 hits: 0 fills: 0
SIG: 4207812 hits: 5 fills: 0
SIG: 4207818 hits: 0 fills: 0
SIG: 4207854 hits: 0 fills: 0
SIG: 4207875 hits: 0 fills: 0
SIG: 4208010 hits: 0 fills: 0
SIG: 4208019 hits: 0 fills: 0
SIG: 4208112 hits: 0 fills: 0
SIG: 4208122 hits: 0 fills: 0
SIG: 4208128 hits: 0 fills: 0
SIG: 4208179 hits: 0 fills: 0
SIG: 4208196 hits: 0 fills: 0
SIG: 4208304 hits: 0 fills: 0
SIG: 4208312 hits: 0 fills: 0
SIG: 4208378 hits: 0 fills: 0
SIG: 4208382 hits: 0 fills: 0
SIG: 4208387 hits: 0 fills: 0
SIG: 4208427 hits: 0 fills: 0
SIG: 4208479 hits: 0 fills: 0
SIG: 4208514 hits: 0 fills: 0
SIG: 4208554 hits: 0 fills: 0
SIG: 4208576 hits: 0 fills: 0
SIG: 4208645 hits: 0 fills: 0
SIG: 4208673 hits: 0 fills: 0
SIG: 4208714 hits: 0 fills: 0
SIG: 4208734 hits: 0 fills: 0
SIG: 4208768 hits: 0 fills: 0
SIG: 4208778 hits: 78 fills: 0
SIG: 4208787 hits: 3 fills: 0
SIG: 4208807 hits: 0 fills: 0
SIG: 4208839 hits: 0 fills: 0
SIG: 4208875 hits: 0 fills: 0
SIG: 4208894 hits: 0 fills: 0
SIG: 4208899 hits: 0 fills: 0
SIG: 4208934 hits: 37 fills: 0
SIG: 4208962 hits: 0 fills: 0
SIG: 4209015 hits: 0 fills: 0
SIG: 4209024 hits: 0 fills: 0
SIG: 4209034 hits: 0 fills: 0
SIG: 4209074 hits: 24 fills: 0
SIG: 4209088 hits: 0 fills: 0
SIG: 4209153 hits: 0 fills: 0
SIG: 4209217 hits: 0 fills: 0
SIG: 4209282 hits: 0 fills: 0
SIG: 4209285 hits: 25 fills: 1023
SIG: 4209299 hits: 0 fills: 1
SIG: 4209424 hits: 0 fills: 0
SIG: 4209472 hits: 0 fills: 0
SIG: 4209536 hits: 0 fills: 0
SIG: 4209603 hits: 0 fills: 0
SIG: 4209666 hits: 0 fills: 0
SIG: 4209731 hits: 0 fills: 0
SIG: 4209792 hits: 0 fills: 0
SIG: 4209859 hits: 0 fills: 0
SIG: 4209924 hits: 0 fills: 0
SIG: 4209986 hits: 0 fills: 0
SIG: 4210085 hits: 0 fills: 0
SIG: 4210115 hits: 0 fills: 0
SIG: 4210178 hits: 0 fills: 0
SIG: 4210245 hits: 0 fills: 0
SIG: 4210306 hits: 0 fills: 0
SIG: 4210389 hits: 0 fills: 0
SIG: 4210435 hits: 0 fills: 0
SIG: 4210619 hits: 0 fills: 0
SIG: 4210627 hits: 0 fills: 0
SIG: 4210642 hits: 0 fills: 0
SIG: 4210688 hits: 0 fills: 0
1024 412
Heartbeat CPU 0 instructions: 3000002 cycles: 4930114 heartbeat IPC: 0.592922 cumulative IPC: 0.593682 (Simulation time: 0 hr 0 min 9 sec) 
SIG: 4205221 hits: 0 fills: 0
SIG: 4205225 hits: 0 fills: 0
SIG: 4205231 hits: 0 fills: 0
SIG: 4205234 hits: 0 fills: 0
SIG: 4205247 hits: 0 fills: 0
SIG: 4205251 hits: 0 fills: 0
SIG: 4205264 hits: 0 fills: 0
SIG: 4205268 hits: 0 fills: 0
SIG: 4205281 hits: 0 fills: 0
SIG: 4205285 hits: 0 fills: 0
SIG: 4205298 hits: 0 fills: 0
SIG: 4205302 hits: 0 fills: 0
SIG: 4205311 hits: 0 fills: 0
SIG: 4205315 hits: 0 fills: 0
SIG: 4205319 hits: 0 fills: 0
SIG: 4205332 hits: 0 fills: 0
SIG: 4205336 hits: 0 fills: 0
SIG: 4205349 hits: 0 fills: 0
SIG: 4205353 hits: 0 fills: 0
SIG: 4205366 hits: 0 fills: 0
SIG: 4205370 hits: 0 fills: 0
SIG: 4205380 hits: 0 fills: 0
SIG: 4205387 hits: 0 fills: 0
SIG: 4205391 hits: 0 fills: 0
SIG: 4205408 hits: 0 fills: 0
SIG: 4205412 hits: 0 fills: 0
SIG: 4205429 hits: 0 fills: 0
SIG: 4205433 hits: 0 fills: 0
SIG: 4205443 hits: 0 fills: 0
SIG: 4205460 hits: 0 fills: 0
SIG: 4205465 hits: 0 fills: 0
SIG: 4205475 hits: 35 fills: 0
SIG: 4205480 hits: 36 fills: 0
SIG: 4205499 hits: 0 fills: 0
SIG: 4205504 hits: 0 fills: 0
SIG: 4205514 hits: 0 fills: 0
SIG: 4205519 hits: 1 fills: 0
SIG: 4205553 hits: 0 fills: 0
SIG: 4205558 hits: 0 fills: 0
SIG: 4205569 hits: 0 fills: 0
SIG: 4205577 hits: 0 fills: 0
SIG: 4205582 hits: 0 fills: 0
SIG: 4205592 hits: 2 fills: 0
SIG: 4205597 hits: 0 fills: 0
SIG: 4205631 hits: 0 fills: 0
SIG: 4205636 hits: 0 fills: 0
SIG: 4205655 hits: 0 fills: 0
SIG: 4205666 hits: 0 fills: 0
SIG: 4205671 hits: 0 fills: 0
SIG: 4205697 hits: 0 fills: 0
SIG: 4205728 hits: 0 fills: 0
SIG: 4205789 hits: 0 fills: 0
SIG: 4207217 hits: 0 fills: 0
SIG: 4207237 hits: 0 fills: 0
SIG: 4207242 hits: 0 fills: 0
SIG: 4207298 hits: 0 fills: 0
SIG: 4207377 hits: 0 fills: 0
SIG: 4207424 hits: 0 fills: 0
SIG: 4207450 hits: 0 fills: 0
SIG: 4207456 hits: 0 fills: 0
SIG: 4207464 hits: 0 fills: 0
SIG: 4207470 hits: 0 fills: 0
SIG: 4207472 hits: 0 fills: 0
SIG: 4207477 hits: 0 fills: 0
SIG: 4207488 hits: 0 fills: 0
SIG: 4207552 hits: 0 fills: 0
SIG: 4207559 hits: 0 fills: 0
SIG: 4207602 hits: 0 fills: 0
SIG: 4207646 hits: 0 fills: 0
SIG: 4207676 hits: 0 fills: 0
SIG: 4207683 hits: 0 fills: 0
SIG: 4207695 hits: 0 fills: 0
SIG: 4207752 hits: 0 fills: 0
SIG: 4207812 hits: 0 fills: 0
SIG: 4207818 hits: 0 fills: 0
SIG: 4207854 hits: 0 fills: 0
SIG: 4207875 hits: 0 fills: 0
SIG: 4208010 hits: 0 fills: 0
SIG: 4208019 hits: 0 fills: 0
SIG: 4208112 hits: 0 fills: 0
SIG: 4208122 hits: 0 fills: 0
SIG: 4208128 hits: 0 fills: 0
SIG: 4208179 hits: 0 fills: 0
SIG: 4208196 hits: 0 fills: 0
SIG: 4208304 hits: 0 fills: 0
SIG: 4208312 hits: 1 fills: 0
SIG: 4208378 hits: 0 fills: 0
SIG: 4208382 hits: 1 fills: 0
SIG: 4208387 hits: 0 fills: 0
SIG: 4208427 hits: 0 fills: 0
SIG: 4208479 hits: 0 fills: 0
SIG: 4208514 hits: 0 fills: 0
SIG: 4208554 hits: 0 fills: 0
SIG: 4208576 hits: 0 fills: 0
SIG: 4208645 hits: 0 fills: 0
SIG: 4208673 hits: 0 fills: 0
SIG: 4208714 hits: 0 fills: 0
SIG: 4208734 hits: 0 fills: 0
SIG: 4208768 hits: 0 fills: 0
SIG: 4208778 hits: 50 fills: 0
SIG: 4208787 hits: 0 fills: 0
SIG: 4208807 hits: 2 fills: 0
SIG: 4208839 hits: 0 fills: 0
SIG: 4208875 hits: 0 fills: 0
SIG: 4208894 hits: 0 fills: 0
SIG: 4208899 hits: 0 fills: 0
SIG: 4208934 hits: 75 fills: 0
SIG: 4208962 hits: 0 fills: 0
SIG: 4209015 hits: 0 fills: 0
SIG: 4209024 hits: 0 fills: 0
SIG: 4209034 hits: 0 fills: 0
SIG: 4209074 hits: 24 fills: 0
SIG: 4209088 hits: 0 fills: 0
SIG: 4209153 hits: 0 fills: 0
SIG: 4209217 hits: 0 fills: 0
SIG: 4209282 hits: 0 fills: 0
SIG: 4209285 hits: 189 fills: 1024
SIG: 4209299 hits: 0 fills: 0
SIG: 4209424 hits: 0 fills: 0
SIG: 4209472 hits: 0 fills: 0
SIG: 4209536 hits: 0 fills: 0
SIG: 4209603 hits: 0 fills: 0
SIG: 4209666 hits: 0 fills: 0
SIG: 4209731 hits: 0 fills: 0
SIG: 4209792 hits: 0 fills: 0
SIG: 4209859 hits: 0 fills: 0
SIG: 4209924 hits: 0 fills: 0
SIG: 4209986 hits: 0 fills: 0
SIG: 4210085 hits: 0 fills: 0
SIG: 4210115 hits: 0 fills: 0
SIG: 4210178 hits: 0 fills: 0
SIG: 4210245 hits: 0 fills: 0
SIG: 4210306 hits: 0 fills: 0
SIG: 4210389 hits: 0 fills: 0
SIG: 4210435 hits: 0 fills: 0
SIG: 4210619 hits: 0 fills: 0
SIG: 4210627 hits: 0 fills: 0
SIG: 4210642 hits: 0 fills: 0
SIG: 4210688 hits: 0 fills: 0
1024 416
SIG: 4205221 hits: 0 fills: 0
SIG: 4205225 hits: 0 fills: 0
SIG: 4205231 hits: 0 fills: 0
SIG: 4205234 hits: 0 fills: 0
SIG: 4205247 hits: 0 fills: 0
SIG: 4205251 hits: 0 fills: 0
SIG: 4205264 hits: 0 fills: 0
SIG: 4205268 hits: 0 fills: 0
SIG: 4205281 hits: 0 fills: 0
SIG: 4205285 hits: 0 fills: 0
SIG: 4205298 hits: 0 fills: 0
SIG: 4205302 hits: 0 fills: 0
SIG: 4205311 hits: 0 fills: 0
SIG: 4205315 hits: 0 fills: 0
SIG: 4205319 hits: 0 fills: 0
SIG: 4205332 hits: 0 fills: 0
SIG: 4205336 hits: 0 fills: 0
SIG: 4205349 hits: 0 fills: 0
SIG: 4205353 hits: 0 fills: 0
SIG: 4205366 hits: 0 fills: 0
SIG: 4205370 hits: 0 fills: 0
SIG: 4205380 hits: 0 fills: 0
SIG: 4205387 hits: 0 fills: 0
SIG: 4205391 hits: 0 fills: 0
SIG: 4205408 hits: 0 fills: 0
SIG: 4205412 hits: 0 fills: 0
SIG: 4205429 hits: 0 fills: 0
SIG: 4205433 hits: 0 fills: 0
SIG: 4205443 hits: 0 fills: 0
SIG: 4205460 hits: 0 fills: 0
SIG: 4205465 hits: 0 fills: 0
SIG: 4205475 hits: 118 fills: 0
SIG: 4205480 hits: 83 fills: 0
SIG: 4205499 hits: 0 fills: 0
SIG: 4205504 hits: 0 fills: 0
SIG: 4205514 hits: 2 fills: 0
SIG: 4205519 hits: 0 fills: 0
SIG: 4205553 hits: 1 fills: 0
SIG: 4205558 hits: 0 fills: 0
SIG: 4205569 hits: 0 fills: 0
SIG: 4205577 hits: 0 fills: 0
SIG: 4205582 hits: 0 fills: 0
SIG: 4205592 hits: 1 fills: 0
SIG: 4205597 hits: 0 fills: 0
SIG: 4205631 hits: 1 fills: 0
SIG: 4205636 hits: 0 fills: 0
SIG: 4205655 hits: 0 fills: 0
SIG: 4205666 hits: 0 fills: 0
SIG: 4205671 hits: 0 fills: 0
SIG: 4205697 hits: 1 fills: 0
SIG: 4205728 hits: 0 fills: 0
SIG: 4205789 hits: 0 fills: 0
SIG: 4207217 hits: 0 fills: 0
SIG: 4207237 hits: 0 fills: 0
SIG: 4207242 hits: 0 fills: 0
SIG: 4207298 hits: 0 fills: 0
SIG: 4207377 hits: 0 fills: 0
SIG: 4207424 hits: 0 fills: 0
SIG: 4207450 hits: 3 fills: 0
SIG: 4207456 hits: 0 fills: 0
SIG: 4207464 hits: 3 fills: 0
SIG: 4207470 hits: 1 fills: 0
SIG: 4207472 hits: 0 fills: 0
SIG: 4207477 hits: 0 fills: 0
SIG: 4207488 hits: 0 fills: 0
SIG: 4207552 hits: 11 fills: 0
SIG: 4207559 hits: 0 fills: 0
SIG: 4207602 hits: 0 fills: 0
SIG: 4207646 hits: 0 fills: 0
SIG: 4207676 hits: 0 fills: 0
SIG: 4207683 hits: 0 fills: 0
SIG: 4207695 hits: 0 fills: 0
SIG: 4207752 hits: 0 fills: 0
SIG: 4207812 hits: 31 fills: 0
SIG: 4207818 hits: 0 fills: 0
SIG: 4207854 hits: 0 fills: 0
SIG: 4207875 hits: 0 fills: 0
SIG: 4208010 hits: 0 fills: 0
SIG: 4208019 hits: 0 fills: 0
SIG: 4208112 hits: 0 fills: 0
SIG: 4208122 hits: 1 fills: 0
SIG: 4208128 hits: 0 fills: 0
SIG: 4208179 hits: 1 fills: 0
SIG: 4208196 hits: 0 fills: 0
SIG: 4208304 hits: 0 fills: 0
SIG: 4208312 hits: 1 fills: 0
SIG: 4208378 hits: 0 fills: 0
SIG: 4208382 hits: 0 fills: 0
SIG: 4208387 hits: 0 fills: 0
SIG: 4208427 hits: 0 fills: 0
SIG: 4208479 hits: 0 fills: 0
SIG: 4208514 hits: 0 fills: 0
SIG: 4208554 hits: 0 fills: 0
SIG: 4208576 hits: 0 fills: 0
SIG: 4208645 hits: 0 fills: 0
SIG: 4208673 hits: 0 fills: 0
SIG: 4208714 hits: 0 fills: 0
SIG: 4208734 hits: 0 fills: 0
SIG: 4208768 hits: 0 fills: 0
SIG: 4208778 hits: 43 fills: 0
SIG: 4208787 hits: 0 fills: 0
SIG: 4208807 hits: 0 fills: 0
SIG: 4208839 hits: 0 fills: 0
SIG: 4208875 hits: 27 fills: 0
SIG: 4208894 hits: 0 fills: 0
SIG: 4208899 hits: 0 fills: 0
SIG: 4208934 hits: 22 fills: 0
SIG: 4208962 hits: 0 fills: 0
SIG: 4209015 hits: 0 fills: 0
SIG: 4209024 hits: 0 fills: 0
SIG: 4209034 hits: 0 fills: 0
SIG: 4209074 hits: 30 fills: 0
SIG: 4209088 hits: 0 fills: 0
SIG: 4209153 hits: 0 fills: 0
SIG: 4209217 hits: 0 fills: 0
SIG: 4209282 hits: 0 fills: 0
SIG: 4209285 hits: 625 fills: 1024
SIG: 4209299 hits: 0 fills: 0
SIG: 4209424 hits: 0 fills: 0
SIG: 4209472 hits: 0 fills: 0
SIG: 4209536 hits: 0 fills: 0
SIG: 4209603 hits: 0 fills: 0
SIG: 4209666 hits: 0 fills: 0
SIG: 4209731 hits: 0 fills: 0
SIG: 4209792 hits: 0 fills: 0
SIG: 4209859 hits: 0 fills: 0
SIG: 4209924 hits: 0 fills: 0
SIG: 4209986 hits: 0 fills: 0
SIG: 4210085 hits: 0 fills: 0
SIG: 4210115 hits: 0 fills: 0
SIG: 4210178 hits: 0 fills: 0
SIG: 4210245 hits: 0 fills: 0
SIG: 4210306 hits: 0 fills: 0
SIG: 4210389 hits: 0 fills: 0
SIG: 4210435 hits: 0 fills: 0
SIG: 4210619 hits: 0 fills: 0
SIG: 4210627 hits: 0 fills: 0
SIG: 4210642 hits: 0 fills: 0
SIG: 4210688 hits: 0 fills: 0
1024 1006
SIG: 4205221 hits: 0 fills: 0
SIG: 4205225 hits: 0 fills: 0
SIG: 4205231 hits: 0 fills: 0
SIG: 4205234 hits: 0 fills: 0
SIG: 4205247 hits: 0 fills: 0
SIG: 4205251 hits: 0 fills: 0
SIG: 4205264 hits: 0 fills: 0
SIG: 4205268 hits: 0 fills: 0
SIG: 4205281 hits: 0 fills: 0
SIG: 4205285 hits: 0 fills: 0
SIG: 4205298 hits: 0 fills: 0
SIG: 4205302 hits: 0 fills: 0
SIG: 4205311 hits: 0 fills: 0
SIG: 4205315 hits: 0 fills: 0
SIG: 4205319 hits: 0 fills: 0
SIG: 4205332 hits: 0 fills: 0
SIG: 4205336 hits: 0 fills: 0
SIG: 4205349 hits: 0 fills: 0
SIG: 4205353 hits: 0 fills: 0
SIG: 4205366 hits: 0 fills: 0
SIG: 4205370 hits: 0 fills: 0
SIG: 4205380 hits: 0 fills: 0
SIG: 4205387 hits: 0 fills: 0
SIG: 4205391 hits: 0 fills: 0
SIG: 4205408 hits: 0 fills: 0
SIG: 4205412 hits: 0 fills: 0
SIG: 4205429 hits: 0 fills: 0
SIG: 4205433 hits: 0 fills: 0
SIG: 4205443 hits: 0 fills: 0
SIG: 4205460 hits: 0 fills: 0
SIG: 4205465 hits: 0 fills: 0
SIG: 4205475 hits: 197 fills: 0
SIG: 4205480 hits: 169 fills: 0
SIG: 4205499 hits: 0 fills: 0
SIG: 4205504 hits: 0 fills: 0
SIG: 4205514 hits: 1 fills: 0
SIG: 4205519 hits: 3 fills: 0
SIG: 4205553 hits: 1 fills: 0
SIG: 4205558 hits: 0 fills: 0
SIG: 4205569 hits: 0 fills: 0
SIG: 4205577 hits: 0 fills: 0
SIG: 4205582 hits: 0 fills: 0
SIG: 4205592 hits: 0 fills: 0
SIG: 4205597 hits: 0 fills: 0
SIG: 4205631 hits: 0 fills: 0
SIG: 4205636 hits: 0 fills: 0
SIG: 4205655 hits: 0 fills: 0
SIG: 4205666 hits: 0 fills: 0
SIG: 4205671 hits: 0 fills: 0
SIG: 4205697 hits: 2 fills: 0
SIG: 4205728 hits: 1 fills: 0
SIG: 4205789 hits: 0 fills: 0
SIG: 4207217 hits: 0 fills: 0
SIG: 4207237 hits: 0 fills: 0
SIG: 4207242 hits: 1 fills: 0
SIG: 4207298 hits: 0 fills: 0
SIG: 4207377 hits: 0 fills: 0
SIG: 4207424 hits: 0 fills: 0
SIG: 4207450 hits: 1 fills: 0
SIG: 4207456 hits: 0 fills: 0
SIG: 4207464 hits: 2 fills: 0
SIG: 4207470 hits: 2 fills: 0
SIG: 4207472 hits: 0 fills: 0
SIG: 4207477 hits: 0 fills: 0
SIG: 4207488 hits: 0 fills: 0
SIG: 4207552 hits: 25 fills: 0
SIG: 4207559 hits: 0 fills: 0
SIG: 4207602 hits: 0 fills: 0
SIG: 4207646 hits: 0 fills: 0
SIG: 4207676 hits: 0 fills: 0
SIG: 4207683 hits: 0 fills: 0
SIG: 4207695 hits: 0 fills: 0
SIG: 4207752 hits: 0 fills: 0
SIG: 4207812 hits: 50 fills: 0
SIG: 4207818 hits: 0 fills: 0
SIG: 4207854 hits: 0 fills: 0
SIG: 4207875 hits: 0 fills: 0
SIG: 4208010 hits: 0 fills: 0
SIG: 4208019 hits: 0 fills: 0
SIG: 4208112 hits: 0 fills: 0
SIG: 4208122 hits: 0 fills: 0
SIG: 4208128 hits: 0 fills: 0
SIG: 4208179 hits: 0 fills: 0
SIG: 4208196 hits: 0 fills: 0
SIG: 4208304 hits: 0 fills: 0
SIG: 4208312 hits: 0 fills: 0
SIG: 4208378 hits: 0 fills: 0
SIG: 4208382 hits: 0 fills: 0
SIG: 4208387 hits: 0 fills: 0
SIG: 4208427 hits: 0 fills: 0
SIG: 4208479 hits: 0 fills: 0
SIG: 4208514 hits: 0 fills: 0
SIG: 4208554 hits: 0 fills: 0
SIG: 4208576 hits: 0 fills: 0
SIG: 4208645 hits: 0 fills: 0
SIG: 4208673 hits: 0 fills: 0
SIG: 4208714 hits: 0 fills: 0
SIG: 4208734 hits: 0 fills: 0
SIG: 4208768 hits: 0 fills: 0
SIG: 4208778 hits: 20 fills: 0
SIG: 4208787 hits: 0 fills: 0
SIG: 4208807 hits: 1 fills: 0
SIG: 4208839 hits: 0 fills: 0
SIG: 4208875 hits: 50 fills: 0
SIG: 4208894 hits: 0 fills: 0
SIG: 4208899 hits: 0 fills: 0
SIG: 4208934 hits: 6 fills: 0
SIG: 4208962 hits: 0 fills: 0
SIG: 4209015 hits: 0 fills: 0
SIG: 4209024 hits: 0 fills: 0
SIG: 4209034 hits: 0 fills: 0
SIG: 4209074 hits: 11 fills: 0
SIG: 4209088 hits: 0 fills: 0
SIG: 4209153 hits: 0 fills: 0
SIG: 4209217 hits: 0 fills: 0
SIG: 4209282 hits: 0 fills: 0
SIG: 4209285 hits: 1217 fills: 1024
SIG: 4209299 hits: 0 fills: 0
SIG: 4209424 hits: 0 fills: 0
SIG: 4209472 hits: 0 fills: 0
SIG: 4209536 hits: 0 fills: 0
SIG: 4209603 hits: 0 fills: 0
SIG: 4209666 hits: 0 fills: 0
SIG: 4209731 hits: 0 fills: 0
SIG: 4209792 hits: 0 fills: 0
SIG: 4209859 hits: 0 fills: 0
SIG: 4209924 hits: 0 fills: 0
SIG: 4209986 hits: 0 fills: 0
SIG: 4210085 hits: 0 fills: 0
SIG: 4210115 hits: 0 fills: 0
SIG: 4210178 hits: 0 fills: 0
SIG: 4210245 hits: 0 fills: 0
SIG: 4210306 hits: 0 fills: 0
SIG: 4210389 hits: 0 fills: 0
SIG: 4210435 hits: 0 fills: 0
SIG: 4210619 hits: 0 fills: 0
SIG: 4210627 hits: 0 fills: 0
SIG: 4210642 hits: 0 fills: 0
SIG: 4210688 hits: 0 fills: 0
1024 1760
SIG: 4205221 hits: 0 fills: 0
SIG: 4205225 hits: 0 fills: 0
SIG: 4205231 hits: 0 fills: 0
SIG: 4205234 hits: 0 fills: 0
SIG: 4205247 hits: 0 fills: 0
SIG: 4205251 hits: 0 fills: 0
SIG: 4205264 hits: 0 fills: 0
SIG: 4205268 hits: 0 fills: 0
SIG: 4205281 hits: 0 fills: 0
SIG: 4205285 hits: 0 fills: 0
SIG: 4205298 hits: 0 fills: 0
SIG: 4205302 hits: 0 fills: 0
SIG: 4205311 hits: 0 fills: 0
SIG: 4205315 hits: 0 fills: 0
SIG: 4205319 hits: 0 fills: 0
SIG: 4205332 hits: 0 fills: 0
SIG: 4205336 hits: 0 fills: 0
SIG: 4205349 hits: 0 fills: 0
SIG: 4205353 hits: 0 fills: 0
SIG: 4205366 hits: 0 fills: 0
SIG: 4205370 hits: 0 fills: 0
SIG: 4205380 hits: 0 fills: 0
SIG: 4205387 hits: 0 fills: 0
SIG: 4205391 hits: 0 fills: 0
SIG: 4205408 hits: 0 fills: 0
SIG: 4205412 hits: 0 fills: 0
SIG: 4205429 hits: 0 fills: 0
SIG: 4205433 hits: 0 fills: 0
SIG: 4205443 hits: 0 fills: 0
SIG: 4205460 hits: 0 fills: 0
SIG: 4205465 hits: 0 fills: 0
SIG: 4205475 hits: 367 fills: 0
SIG: 4205480 hits: 239 fills: 0
SIG: 4205499 hits: 0 fills: 0
SIG: 4205504 hits: 0 fills: 0
SIG: 4205514 hits: 2 fills: 0
SIG: 4205519 hits: 1 fills: 0
SIG: 4205553 hits: 1 fills: 0
SIG: 4205558 hits: 0 fills: 0
SIG: 4205569 hits: 0 fills: 0
SIG: 4205577 hits: 0 fills: 0
SIG: 4205582 hits: 0 fills: 0
SIG: 4205592 hits: 7 fills: 0
SIG: 4205597 hits: 0 fills: 0
SIG: 4205631 hits: 0 fills: 0
SIG: 4205636 hits: 0 fills: 0
SIG: 4205655 hits: 0 fills: 0
SIG: 4205666 hits: 0 fills: 0
SIG: 4205671 hits: 0 fills: 0
SIG: 4205697 hits: 1 fills: 0
SIG: 4205728 hits: 1 fills: 0
SIG: 4205789 hits: 0 fills: 0
SIG: 4207217 hits: 0 fills: 0
SIG: 4207237 hits: 0 fills: 0
SIG: 4207242 hits: 0 fills: 0
SIG: 4207298 hits: 0 fills: 0
SIG: 4207377 hits: 0 fills: 0
SIG: 4207424 hits: 0 fills: 0
SIG: 4207450 hits: 1 fills: 0
SIG: 4207456 hits: 0 fills: 0
SIG: 4207464 hits: 1 fills: 0
SIG: 4207470 hits: 1 fills: 0
SIG: 4207472 hits: 0 fills: 0
SIG: 4207477 hits: 0 fills: 0
SIG: 4207488 hits: 0 fills: 0
SIG: 4207552 hits: 12 fills: 0
SIG: 4207559 hits: 0 fills: 0
SIG: 4207602 hits: 0 fills: 0
SIG: 4207646 hits: 0 fills: 0
SIG: 4207676 hits: 0 fills: 0
SIG: 4207683 hits: 0 fills: 0
SIG: 4207695 hits: 0 fills: 0
SIG: 4207752 hits: 0 fills: 0
SIG: 4207812 hits: 113 fills: 0
SIG: 4207818 hits: 0 fills: 0
SIG: 4207854 hits: 0 fills: 0
SIG: 4207875 hits: 0 fills: 0
SIG: 4208010 hits: 0 fills: 0
SIG: 4208019 hits: 0 fills: 0
SIG: 4208112 hits: 0 fills: 0
SIG: 4208122 hits: 1 fills: 0
SIG: 4208128 hits: 0 fills: 0
SIG: 4208179 hits: 1 fills: 0
SIG: 4208196 hits: 0 fills: 0
SIG: 4208304 hits: 0 fills: 0
SIG: 4208312 hits: 0 fills: 0
SIG: 4208378 hits: 0 fills: 0
SIG: 4208382 hits: 0 fills: 0
SIG: 4208387 hits: 0 fills: 0
SIG: 4208427 hits: 0 fills: 0
SIG: 4208479 hits: 0 fills: 0
SIG: 4208514 hits: 0 fills: 0
SIG: 4208554 hits: 0 fills: 0
SIG: 4208576 hits: 0 fills: 0
SIG: 4208645 hits: 0 fills: 0
SIG: 4208673 hits: 0 fills: 0
SIG: 4208714 hits: 0 fills: 0
SIG: 4208734 hits: 1 fills: 0
SIG: 4208768 hits: 0 fills: 0
SIG: 4208778 hits: 8 fills: 0
SIG: 4208787 hits: 0 fills: 0
SIG: 4208807 hits: 1 fills: 0
SIG: 4208839 hits: 0 fills: 0
SIG: 4208875 hits: 97 fills: 0
SIG: 4208894 hits: 0 fills: 0
SIG: 4208899 hits: 0 fills: 0
SIG: 4208934 hits: 0 fills: 0
SIG: 4208962 hits: 0 fills: 0
SIG: 4209015 hits: 0 fills: 0
SIG: 4209024 hits: 0 fills: 0
SIG: 4209034 hits: 0 fills: 0
SIG: 4209074 hits: 6 fills: 0
SIG: 4209088 hits: 0 fills: 0
SIG: 4209153 hits: 0 fills: 0
SIG: 4209217 hits: 0 fills: 0
SIG: 4209282 hits: 0 fills: 0
SIG: 4209285 hits: 3176 fills: 1024
SIG: 4209299 hits: 2 fills: 0
SIG: 4209424 hits: 0 fills: 0
SIG: 4209472 hits: 0 fills: 0
SIG: 4209536 hits: 0 fills: 0
SIG: 4209603 hits: 0 fills: 0
SIG: 4209666 hits: 0 fills: 0
SIG: 4209731 hits: 0 fills: 0
SIG: 4209792 hits: 0 fills: 0
SIG: 4209859 hits: 0 fills: 0
SIG: 4209924 hits: 0 fills: 0
SIG: 4209986 hits: 0 fills: 0
SIG: 4210085 hits: 0 fills: 0
SIG: 4210115 hits: 0 fills: 0
SIG: 4210178 hits: 0 fills: 0
SIG: 4210245 hits: 0 fills: 0
SIG: 4210306 hits: 0 fills: 0
SIG: 4210389 hits: 0 fills: 0
SIG: 4210435 hits: 0 fills: 0
SIG: 4210619 hits: 0 fills: 0
SIG: 4210627 hits: 0 fills: 0
SIG: 4210642 hits: 0 fills: 0
SIG: 4210688 hits: 0 fills: 0
1024 4040
SIG: 4205221 hits: 0 fills: 0
SIG: 4205225 hits: 0 fills: 0
SIG: 4205231 hits: 0 fills: 0
SIG: 4205234 hits: 0 fills: 0
SIG: 4205247 hits: 0 fills: 0
SIG: 4205251 hits: 0 fills: 0
SIG: 4205264 hits: 0 fills: 0
SIG: 4205268 hits: 0 fills: 0
SIG: 4205281 hits: 0 fills: 0
SIG: 4205285 hits: 0 fills: 0
SIG: 4205298 hits: 0 fills: 0
SIG: 4205302 hits: 0 fills: 0
SIG: 4205311 hits: 0 fills: 0
SIG: 4205315 hits: 0 fills: 0
SIG: 4205319 hits: 0 fills: 0
SIG: 4205332 hits: 0 fills: 0
SIG: 4205336 hits: 0 fills: 0
SIG: 4205349 hits: 0 fills: 0
SIG: 4205353 hits: 0 fills: 0
SIG: 4205366 hits: 0 fills: 0
SIG: 4205370 hits: 0 fills: 0
SIG: 4205380 hits: 0 fills: 0
SIG: 4205387 hits: 0 fills: 0
SIG: 4205391 hits: 0 fills: 0
SIG: 4205408 hits: 0 fills: 0
SIG: 4205412 hits: 0 fills: 0
SIG: 4205429 hits: 0 fills: 0
SIG: 4205433 hits: 0 fills: 0
SIG: 4205443 hits: 0 fills: 0
SIG: 4205460 hits: 0 fills: 0
SIG: 4205465 hits: 0 fills: 0
SIG: 4205475 hits: 234 fills: 0
SIG: 4205480 hits: 182 fills: 0
SIG: 4205499 hits: 0 fills: 0
SIG: 4205504 hits: 0 fills: 0
SIG: 4205514 hits: 0 fills: 0
SIG: 4205519 hits: 2 fills: 0
SIG: 4205553 hits: 2 fills: 0
SIG: 4205558 hits: 1 fills: 0
SIG: 4205569 hits: 0 fills: 0
SIG: 4205577 hits: 0 fills: 0
SIG: 4205582 hits: 0 fills: 0
SIG: 4205592 hits: 0 fills: 0
SIG: 4205597 hits: 0 fills: 0
SIG: 4205631 hits: 1 fills: 0
SIG: 4205636 hits: 0 fills: 0
SIG: 4205655 hits: 0 fills: 0
SIG: 4205666 hits: 0 fills: 0
SIG: 4205671 hits: 0 fills: 0
SIG: 4205697 hits: 5 fills: 0
SIG: 4205728 hits: 0 fills: 0
SIG: 4205789 hits: 0 fills: 0
SIG: 4207217 hits: 0 fills: 0
SIG: 4207237 hits: 0 fills: 0
SIG: 4207242 hits: 0 fills: 0
SIG: 4207298 hits: 0 fills: 0
SIG: 4207377 hits: 0 fills: 0
SIG: 4207424 hits: 0 fills: 0
SIG: 4207450 hits: 1 fills: 0
SIG: 4207456 hits: 0 fills: 0
SIG: 4207464 hits: 1 fills: 0
SIG: 4207470 hits: 1 fills: 0
SIG: 4207472 hits: 0 fills: 0
SIG: 4207477 hits: 0 fills: 0
SIG: 4207488 hits: 0 fills: 0
SIG: 4207552 hits: 123 fills: 0
SIG: 4207559 hits: 0 fills: 0
SIG: 4207602 hits: 0 fills: 0
SIG: 4207646 hits: 0 fills: 0
SIG: 4207676 hits: 0 fills: 0
SIG: 4207683 hits: 0 fills: 0
SIG: 4207695 hits: 0 fills: 0
SIG: 4207752 hits: 0 fills: 0
SIG: 4207812 hits: 8 fills: 0
SIG: 4207818 hits: 0 fills: 0
SIG: 4207854 hits: 0 fills: 0
SIG: 4207875 hits: 0 fills: 0
SIG: 4208010 hits: 0 fills: 0
SIG: 4208019 hits: 0 fills: 0
SIG: 4208112 hits: 0 fills: 0
SIG: 4208122 hits: 0 fills: 0
SIG: 4208128 hits: 0 fills: 0
SIG: 4208179 hits: 0 fills: 0
SIG: 4208196 hits: 0 fills: 0
SIG: 4208304 hits: 1 fills: 0
SIG: 4208312 hits: 0 fills: 0
SIG: 4208378 hits: 0 fills: 0
SIG: 4208382 hits: 0 fills: 0
SIG: 4208387 hits: 0 fills: 0
SIG: 4208427 hits: 1 fills: 0
SIG: 4208479 hits: 0 fills: 0
SIG: 4208514 hits: 0 fills: 0
SIG: 4208554 hits: 0 fills: 0
SIG: 4208576 hits: 0 fills: 0
SIG: 4208645 hits: 0 fills: 0
SIG: 4208673 hits: 0 fills: 0
SIG: 4208714 hits: 0 fills: 0
SIG: 4208734 hits: 0 fills: 0
SIG: 4208768 hits: 0 fills: 0
SIG: 4208778 hits: 2 fills: 0
SIG: 4208787 hits: 0 fills: 0
SIG: 4208807 hits: 0 fills: 0
SIG: 4208839 hits: 0 fills: 0
SIG: 4208875 hits: 2 fills: 0
SIG: 4208894 hits: 0 fills: 0
SIG: 4208899 hits: 0 fills: 0
SIG: 4208934 hits: 4 fills: 0
SIG: 4208962 hits: 0 fills: 0
SIG: 4209015 hits: 0 fills: 0
SIG: 4209024 hits: 0 fills: 0
SIG: 4209034 hits: 0 fills: 0
SIG: 4209074 hits: 1 fills: 0
SIG: 4209088 hits: 0 fills: 0
SIG: 4209153 hits: 0 fills: 0
SIG: 4209217 hits: 0 fills: 0
SIG: 4209282 hits: 0 fills: 0
SIG: 4209285 hits: 1964 fills: 1024
SIG: 4209299 hits: 0 fills: 0
SIG: 4209424 hits: 0 fills: 0
SIG: 4209472 hits: 0 fills: 0
SIG: 4209536 hits: 0 fills: 0
SIG: 4209603 hits: 0 fills: 0
SIG: 4209666 hits: 0 fills: 0
SIG: 4209731 hits: 0 fills: 0
SIG: 4209792 hits: 0 fills: 0
SIG: 4209859 hits: 0 fills: 0
SIG: 4209924 hits: 0 fills: 0
SIG: 4209986 hits: 0 fills: 0
SIG: 4210085 hits: 0 fills: 0
SIG: 4210115 hits: 0 fills: 0
SIG: 4210178 hits: 0 fills: 0
SIG: 4210245 hits: 0 fills: 0
SIG: 4210306 hits: 0 fills: 0
SIG: 4210389 hits: 0 fills: 0
SIG: 4210435 hits: 0 fills: 0
SIG: 4210619 hits: 0 fills: 0
SIG: 4210627 hits: 0 fills: 0
SIG: 4210642 hits: 0 fills: 0
SIG: 4210688 hits: 0 fills: 0
1024 2536
