
*** ChampSim Multicore Out-of-Order Simulator ***

Warmup Instructions: 100000
Simulation Instructions: 100000000
Configuration: 1
Number of CPUs: 1
LLC sets: 2048
LLC ways: 16
Off-chip DRAM Channels: 1 Width: 64-bit Data Rate: 1600 MT/s

CPU 0 runs trace/bzip2_100M.trace.gz
Initialize SRRIP state
SIG: 0 hits: 0 fills: 68 hits/fills: 0
SIG: 4231728 hits: 0 fills: 1 hits/fills: 0
SIG: 4231732 hits: 1652 fills: 1978 hits/fills: 0
SIG: 4231745 hits: 0 fills: 1 hits/fills: 0
FILLS: 2048 HITS: 1652
HITS/FILLS STATS: MAP_SIZE: 1
0 4
END HITS/FILLS STATS. CLEARING MAPS...
SIG: 0 hits: 0 fills: 461 hits/fills: 0
SIG: 4231732 hits: 1126 fills: 1587 hits/fills: 0
FILLS: 2048 HITS: 1126
HITS/FILLS STATS: MAP_SIZE: 1
0 2
END HITS/FILLS STATS. CLEARING MAPS...
SIG: 0 hits: 0 fills: 68 hits/fills: 0
SIG: 4231732 hits: 1912 fills: 1980 hits/fills: 0
FILLS: 2048 HITS: 1912
HITS/FILLS STATS: MAP_SIZE: 1
0 2
END HITS/FILLS STATS. CLEARING MAPS...
SIG: 0 hits: 0 fills: 6 hits/fills: 0
SIG: 4231732 hits: 2035 fills: 2042 hits/fills: 0
FILLS: 2048 HITS: 2035
HITS/FILLS STATS: MAP_SIZE: 1
0 2
END HITS/FILLS STATS. CLEARING MAPS...
SIG: 0 hits: 0 fills: 7 hits/fills: 0
SIG: 4231732 hits: 2035 fills: 2041 hits/fills: 0
FILLS: 2048 HITS: 2035
HITS/FILLS STATS: MAP_SIZE: 1
0 2
END HITS/FILLS STATS. CLEARING MAPS...
SIG: 0 hits: 0 fills: 6 hits/fills: 0
SIG: 4231732 hits: 2036 fills: 2042 hits/fills: 0
FILLS: 2048 HITS: 2036
HITS/FILLS STATS: MAP_SIZE: 1
0 2
END HITS/FILLS STATS. CLEARING MAPS...
SIG: 0 hits: 0 fills: 9 hits/fills: 0
SIG: 4231732 hits: 2029 fills: 2039 hits/fills: 0
FILLS: 2048 HITS: 2029
HITS/FILLS STATS: MAP_SIZE: 1
0 2
END HITS/FILLS STATS. CLEARING MAPS...
SIG: 0 hits: 0 fills: 3 hits/fills: 0
SIG: 4231732 hits: 2043 fills: 2045 hits/fills: 0
FILLS: 2048 HITS: 2043
HITS/FILLS STATS: MAP_SIZE: 1
0 2
END HITS/FILLS STATS. CLEARING MAPS...
SIG: 0 hits: 0 fills: 8 hits/fills: 0
SIG: 4231732 hits: 2032 fills: 2040 hits/fills: 0
FILLS: 2048 HITS: 2032
HITS/FILLS STATS: MAP_SIZE: 1
0 2
END HITS/FILLS STATS. CLEARING MAPS...
SIG: 0 hits: 0 fills: 5 hits/fills: 0
SIG: 4231732 hits: 2038 fills: 2043 hits/fills: 0
FILLS: 2048 HITS: 2038
HITS/FILLS STATS: MAP_SIZE: 1
0 2
END HITS/FILLS STATS. CLEARING MAPS...

Warmup complete CPU 0 instructions: 100004 cycles: 45868 (Simulation time: 0 hr 0 min 1 sec) 

SIG: 0 hits: 0 fills: 4 hits/fills: 0
SIG: 4231732 hits: 2040 fills: 2044 hits/fills: 0
FILLS: 2048 HITS: 2040
HITS/FILLS STATS: MAP_SIZE: 1
0 2
END HITS/FILLS STATS. CLEARING MAPS...
SIG: 0 hits: 0 fills: 3 hits/fills: 0
SIG: 4231732 hits: 2041 fills: 2045 hits/fills: 0
FILLS: 2048 HITS: 2041
HITS/FILLS STATS: MAP_SIZE: 1
0 2
END HITS/FILLS STATS. CLEARING MAPS...
SIG: 0 hits: 0 fills: 7 hits/fills: 0
SIG: 4231732 hits: 2034 fills: 2041 hits/fills: 0
FILLS: 2048 HITS: 2034
HITS/FILLS STATS: MAP_SIZE: 1
0 2
END HITS/FILLS STATS. CLEARING MAPS...
SIG: 0 hits: 0 fills: 5 hits/fills: 0
SIG: 4231732 hits: 2034 fills: 2043 hits/fills: 0
FILLS: 2048 HITS: 2034
HITS/FILLS STATS: MAP_SIZE: 1
0 2
END HITS/FILLS STATS. CLEARING MAPS...
SIG: 0 hits: 0 fills: 1 hits/fills: 0
SIG: 4231732 hits: 2050 fills: 2047 hits/fills: 1
FILLS: 2048 HITS: 2050
HITS/FILLS STATS: MAP_SIZE: 2
0 1
1 1
END HITS/FILLS STATS. CLEARING MAPS...
SIG: 0 hits: 0 fills: 2 hits/fills: 0
SIG: 4231732 hits: 2044 fills: 2046 hits/fills: 0
FILLS: 2048 HITS: 2044
HITS/FILLS STATS: MAP_SIZE: 1
0 2
END HITS/FILLS STATS. CLEARING MAPS...
SIG: 0 hits: 0 fills: 56 hits/fills: 0
SIG: 4231732 hits: 1935 fills: 1992 hits/fills: 0
FILLS: 2048 HITS: 1935
HITS/FILLS STATS: MAP_SIZE: 1
0 2
END HITS/FILLS STATS. CLEARING MAPS...
SIG: 0 hits: 0 fills: 10 hits/fills: 0
SIG: 4231732 hits: 2028 fills: 2038 hits/fills: 0
FILLS: 2048 HITS: 2028
HITS/FILLS STATS: MAP_SIZE: 1
0 2
END HITS/FILLS STATS. CLEARING MAPS...
SIG: 0 hits: 0 fills: 5 hits/fills: 0
SIG: 4231732 hits: 2039 fills: 2043 hits/fills: 0
FILLS: 2048 HITS: 2039
HITS/FILLS STATS: MAP_SIZE: 1
0 2
END HITS/FILLS STATS. CLEARING MAPS...
SIG: 0 hits: 0 fills: 4 hits/fills: 0
SIG: 4231732 hits: 2040 fills: 2044 hits/fills: 0
FILLS: 2048 HITS: 2040
HITS/FILLS STATS: MAP_SIZE: 1
0 2
END HITS/FILLS STATS. CLEARING MAPS...
SIG: 0 hits: 0 fills: 7 hits/fills: 0
SIG: 4231732 hits: 2035 fills: 2041 hits/fills: 0
FILLS: 2048 HITS: 2035
HITS/FILLS STATS: MAP_SIZE: 1
0 2
END HITS/FILLS STATS. CLEARING MAPS...
SIG: 0 hits: 0 fills: 6 hits/fills: 0
SIG: 4231732 hits: 2034 fills: 2042 hits/fills: 0
FILLS: 2048 HITS: 2034
HITS/FILLS STATS: MAP_SIZE: 1
0 2
END HITS/FILLS STATS. CLEARING MAPS...
SIG: 0 hits: 0 fills: 5 hits/fills: 0
SIG: 4231732 hits: 2039 fills: 2043 hits/fills: 0
FILLS: 2048 HITS: 2039
HITS/FILLS STATS: MAP_SIZE: 1
0 2
END HITS/FILLS STATS. CLEARING MAPS...
SIG: 0 hits: 0 fills: 7 hits/fills: 0
SIG: 4231653 hits: 0 fills: 1 hits/fills: 0
SIG: 4231685 hits: 0 fills: 1 hits/fills: 0
SIG: 4231706 hits: 0 fills: 1 hits/fills: 0
SIG: 4231732 hits: 1984 fills: 1990 hits/fills: 0
SIG: 4288864 hits: 0 fills: 1 hits/fills: 0
SIG: 4288873 hits: 0 fills: 1 hits/fills: 0
SIG: 4288898 hits: 0 fills: 1 hits/fills: 0
SIG: 4288918 hits: 0 fills: 1 hits/fills: 0
SIG: 4289075 hits: 0 fills: 1 hits/fills: 0
SIG: 4289096 hits: 0 fills: 1 hits/fills: 0
SIG: 4289192 hits: 0 fills: 1 hits/fills: 0
SIG: 4289216 hits: 0 fills: 1 hits/fills: 0
SIG: 4289282 hits: 0 fills: 1 hits/fills: 0
SIG: 4289332 hits: 0 fills: 1 hits/fills: 0
SIG: 4289344 hits: 0 fills: 1 hits/fills: 0
SIG: 4289468 hits: 0 fills: 2 hits/fills: 0
SIG: 4289472 hits: 0 fills: 1 hits/fills: 0
SIG: 4290113 hits: 0 fills: 1 hits/fills: 0
SIG: 4290154 hits: 0 fills: 1 hits/fills: 0
SIG: 4290176 hits: 0 fills: 1 hits/fills: 0
SIG: 4290275 hits: 0 fills: 2 hits/fills: 0
SIG: 4290279 hits: 0 fills: 1 hits/fills: 0
SIG: 4290304 hits: 0 fills: 1 hits/fills: 0
SIG: 4290557 hits: 0 fills: 1 hits/fills: 0
SIG: 4290561 hits: 0 fills: 1 hits/fills: 0
SIG: 4290566 hits: 0 fills: 1 hits/fills: 0
SIG: 4290859 hits: 0 fills: 1 hits/fills: 0
SIG: 4290883 hits: 0 fills: 1 hits/fills: 0
SIG: 4291254 hits: 0 fills: 1 hits/fills: 0
SIG: 4291266 hits: 0 fills: 1 hits/fills: 0
SIG: 4291512 hits: 0 fills: 2 hits/fills: 0
SIG: 4291522 hits: 0 fills: 1 hits/fills: 0
SIG: 4291531 hits: 0 fills: 1 hits/fills: 0
SIG: 4291946 hits: 0 fills: 1 hits/fills: 0
SIG: 4291972 hits: 0 fills: 1 hits/fills: 0
SIG: 4293308 hits: 0 fills: 1 hits/fills: 0
SIG: 4293313 hits: 0 fills: 1 hits/fills: 0
SIG: 4293332 hits: 0 fills: 1 hits/fills: 0
SIG: 4293363 hits: 1 fills: 1 hits/fills: 1
SIG: 4293376 hits: 0 fills: 1 hits/fills: 0
SIG: 4293403 hits: 0 fills: 1 hits/fills: 0
SIG: 4298448 hits: 0 fills: 1 hits/fills: 0
SIG: 4298470 hits: 0 fills: 1 hits/fills: 0
SIG: 4298493 hits: 0 fills: 1 hits/fills: 0
SIG: 4298497 hits: 0 fills: 1 hits/fills: 0
SIG: 4298513 hits: 0 fills: 1 hits/fills: 0
SIG: 4298560 hits: 0 fills: 1 hits/fills: 0
SIG: 4298626 hits: 0 fills: 1 hits/fills: 0
SIG: 4362208 hits: 0 fills: 1 hits/fills: 0
FILLS: 2048 HITS: 1985
HITS/FILLS STATS: MAP_SIZE: 2
0 49
1 1
END HITS/FILLS STATS. CLEARING MAPS...
SIG: 0 hits: 0 fills: 5 hits/fills: 0
SIG: 4231732 hits: 2036 fills: 2043 hits/fills: 0
FILLS: 2048 HITS: 2036
HITS/FILLS STATS: MAP_SIZE: 1
0 2
END HITS/FILLS STATS. CLEARING MAPS...
SIG: 0 hits: 0 fills: 6 hits/fills: 0
SIG: 4231732 hits: 2033 fills: 2042 hits/fills: 0
FILLS: 2048 HITS: 2033
HITS/FILLS STATS: MAP_SIZE: 1
0 2
END HITS/FILLS STATS. CLEARING MAPS...
SIG: 0 hits: 0 fills: 3 hits/fills: 0
SIG: 4231732 hits: 2042 fills: 2045 hits/fills: 0
FILLS: 2048 HITS: 2042
HITS/FILLS STATS: MAP_SIZE: 1
0 2
END HITS/FILLS STATS. CLEARING MAPS...
SIG: 0 hits: 0 fills: 3 hits/fills: 0
SIG: 4231732 hits: 2046 fills: 2045 hits/fills: 1
FILLS: 2048 HITS: 2046
HITS/FILLS STATS: MAP_SIZE: 2
0 1
1 1
END HITS/FILLS STATS. CLEARING MAPS...
SIG: 0 hits: 0 fills: 1 hits/fills: 0
SIG: 4231732 hits: 2046 fills: 2047 hits/fills: 0
FILLS: 2048 HITS: 2046
HITS/FILLS STATS: MAP_SIZE: 1
0 2
END HITS/FILLS STATS. CLEARING MAPS...
SIG: 0 hits: 0 fills: 61 hits/fills: 0
SIG: 4231732 hits: 1926 fills: 1987 hits/fills: 0
FILLS: 2048 HITS: 1926
HITS/FILLS STATS: MAP_SIZE: 1
0 2
END HITS/FILLS STATS. CLEARING MAPS...
SIG: 0 hits: 0 fills: 5 hits/fills: 0
SIG: 4231732 hits: 2038 fills: 2043 hits/fills: 0
FILLS: 2048 HITS: 2038
HITS/FILLS STATS: MAP_SIZE: 1
0 2
END HITS/FILLS STATS. CLEARING MAPS...
SIG: 0 hits: 0 fills: 8 hits/fills: 0
SIG: 4231732 hits: 2029 fills: 2040 hits/fills: 0
FILLS: 2048 HITS: 2029
HITS/FILLS STATS: MAP_SIZE: 1
0 2
END HITS/FILLS STATS. CLEARING MAPS...
SIG: 0 hits: 0 fills: 6 hits/fills: 0
SIG: 4231732 hits: 2038 fills: 2042 hits/fills: 0
FILLS: 2048 HITS: 2038
HITS/FILLS STATS: MAP_SIZE: 1
0 2
END HITS/FILLS STATS. CLEARING MAPS...
SIG: 0 hits: 0 fills: 6 hits/fills: 0
SIG: 4231732 hits: 2037 fills: 2042 hits/fills: 0
FILLS: 2048 HITS: 2037
HITS/FILLS STATS: MAP_SIZE: 1
0 2
END HITS/FILLS STATS. CLEARING MAPS...
SIG: 0 hits: 0 fills: 2 hits/fills: 0
SIG: 4231732 hits: 2045 fills: 2046 hits/fills: 0
FILLS: 2048 HITS: 2045
HITS/FILLS STATS: MAP_SIZE: 1
0 2
END HITS/FILLS STATS. CLEARING MAPS...
SIG: 0 hits: 0 fills: 4 hits/fills: 0
SIG: 4231732 hits: 2039 fills: 2044 hits/fills: 0
FILLS: 2048 HITS: 2039
HITS/FILLS STATS: MAP_SIZE: 1
0 2
END HITS/FILLS STATS. CLEARING MAPS...
SIG: 0 hits: 0 fills: 7 hits/fills: 0
SIG: 4231732 hits: 2033 fills: 2041 hits/fills: 0
FILLS: 2048 HITS: 2033
HITS/FILLS STATS: MAP_SIZE: 1
0 2
END HITS/FILLS STATS. CLEARING MAPS...
SIG: 0 hits: 0 fills: 8 hits/fills: 0
SIG: 4231732 hits: 2033 fills: 2040 hits/fills: 0
FILLS: 2048 HITS: 2033
HITS/FILLS STATS: MAP_SIZE: 1
0 2
END HITS/FILLS STATS. CLEARING MAPS...
SIG: 0 hits: 0 fills: 7 hits/fills: 0
SIG: 4231732 hits: 2034 fills: 2041 hits/fills: 0
FILLS: 2048 HITS: 2034
HITS/FILLS STATS: MAP_SIZE: 1
0 2
END HITS/FILLS STATS. CLEARING MAPS...
SIG: 0 hits: 0 fills: 6 hits/fills: 0
SIG: 4231732 hits: 2036 fills: 2042 hits/fills: 0
FILLS: 2048 HITS: 2036
HITS/FILLS STATS: MAP_SIZE: 1
0 2
END HITS/FILLS STATS. CLEARING MAPS...
SIG: 0 hits: 0 fills: 6 hits/fills: 0
SIG: 4231732 hits: 2037 fills: 2042 hits/fills: 0
FILLS: 2048 HITS: 2037
HITS/FILLS STATS: MAP_SIZE: 1
0 2
END HITS/FILLS STATS. CLEARING MAPS...
SIG: 0 hits: 0 fills: 6 hits/fills: 0
SIG: 4231732 hits: 2035 fills: 2042 hits/fills: 0
FILLS: 2048 HITS: 2035
HITS/FILLS STATS: MAP_SIZE: 1
0 2
END HITS/FILLS STATS. CLEARING MAPS...
SIG: 0 hits: 0 fills: 4 hits/fills: 0
SIG: 4231732 hits: 2036 fills: 2044 hits/fills: 0
FILLS: 2048 HITS: 2036
HITS/FILLS STATS: MAP_SIZE: 1
0 2
END HITS/FILLS STATS. CLEARING MAPS...
SIG: 0 hits: 0 fills: 3 hits/fills: 0
SIG: 4231732 hits: 2044 fills: 2045 hits/fills: 0
FILLS: 2048 HITS: 2044
HITS/FILLS STATS: MAP_SIZE: 1
0 2
END HITS/FILLS STATS. CLEARING MAPS...
SIG: 0 hits: 0 fills: 7 hits/fills: 0
SIG: 4231732 hits: 2037 fills: 2041 hits/fills: 0
FILLS: 2048 HITS: 2037
HITS/FILLS STATS: MAP_SIZE: 1
0 2
END HITS/FILLS STATS. CLEARING MAPS...
SIG: 0 hits: 0 fills: 5 hits/fills: 0
SIG: 4231732 hits: 2036 fills: 2043 hits/fills: 0
FILLS: 2048 HITS: 2036
HITS/FILLS STATS: MAP_SIZE: 1
0 2
END HITS/FILLS STATS. CLEARING MAPS...
SIG: 0 hits: 0 fills: 5 hits/fills: 0
SIG: 4231732 hits: 2039 fills: 2043 hits/fills: 0
FILLS: 2048 HITS: 2039
HITS/FILLS STATS: MAP_SIZE: 1
0 2
END HITS/FILLS STATS. CLEARING MAPS...
SIG: 0 hits: 0 fills: 8 hits/fills: 0
SIG: 4231732 hits: 2033 fills: 2040 hits/fills: 0
FILLS: 2048 HITS: 2033
HITS/FILLS STATS: MAP_SIZE: 1
0 2
END HITS/FILLS STATS. CLEARING MAPS...
SIG: 0 hits: 0 fills: 4 hits/fills: 0
SIG: 4231732 hits: 2040 fills: 2044 hits/fills: 0
FILLS: 2048 HITS: 2040
HITS/FILLS STATS: MAP_SIZE: 1
0 2
END HITS/FILLS STATS. CLEARING MAPS...
SIG: 0 hits: 0 fills: 2 hits/fills: 0
SIG: 4231732 hits: 2044 fills: 2046 hits/fills: 0
FILLS: 2048 HITS: 2044
HITS/FILLS STATS: MAP_SIZE: 1
0 2
END HITS/FILLS STATS. CLEARING MAPS...
SIG: 0 hits: 0 fills: 5 hits/fills: 0
SIG: 4231732 hits: 2035 fills: 2043 hits/fills: 0
FILLS: 2048 HITS: 2035
HITS/FILLS STATS: MAP_SIZE: 1
0 2
END HITS/FILLS STATS. CLEARING MAPS...
SIG: 0 hits: 0 fills: 10 hits/fills: 0
SIG: 4231732 hits: 2030 fills: 2038 hits/fills: 0
FILLS: 2048 HITS: 2030
HITS/FILLS STATS: MAP_SIZE: 1
0 2
END HITS/FILLS STATS. CLEARING MAPS...
SIG: 0 hits: 0 fills: 7 hits/fills: 0
SIG: 4231732 hits: 2035 fills: 2041 hits/fills: 0
FILLS: 2048 HITS: 2035
HITS/FILLS STATS: MAP_SIZE: 1
0 2
END HITS/FILLS STATS. CLEARING MAPS...
SIG: 0 hits: 0 fills: 8 hits/fills: 0
SIG: 4231732 hits: 2028 fills: 2040 hits/fills: 0
FILLS: 2048 HITS: 2028
HITS/FILLS STATS: MAP_SIZE: 1
0 2
END HITS/FILLS STATS. CLEARING MAPS...
SIG: 0 hits: 0 fills: 3 hits/fills: 0
SIG: 4231732 hits: 2044 fills: 2045 hits/fills: 0
FILLS: 2048 HITS: 2044
HITS/FILLS STATS: MAP_SIZE: 1
0 2
END HITS/FILLS STATS. CLEARING MAPS...
SIG: 0 hits: 0 fills: 1 hits/fills: 0
SIG: 4231732 hits: 2044 fills: 2043 hits/fills: 1
SIG: 4290275 hits: 0 fills: 1 hits/fills: 0
SIG: 4290566 hits: 0 fills: 1 hits/fills: 0
SIG: 4293363 hits: 1 fills: 1 hits/fills: 1
SIG: 4298513 hits: 0 fills: 1 hits/fills: 0
FILLS: 2048 HITS: 2045
HITS/FILLS STATS: MAP_SIZE: 2
0 4
1 2
END HITS/FILLS STATS. CLEARING MAPS...
SIG: 0 hits: 0 fills: 2 hits/fills: 0
SIG: 4231732 hits: 2043 fills: 2046 hits/fills: 0
FILLS: 2048 HITS: 2043
HITS/FILLS STATS: MAP_SIZE: 1
0 2
END HITS/FILLS STATS. CLEARING MAPS...
SIG: 0 hits: 0 fills: 44 hits/fills: 0
SIG: 4231732 hits: 1960 fills: 2004 hits/fills: 0
FILLS: 2048 HITS: 1960
HITS/FILLS STATS: MAP_SIZE: 1
0 2
END HITS/FILLS STATS. CLEARING MAPS...
SIG: 0 hits: 0 fills: 7 hits/fills: 0
SIG: 4231732 hits: 2034 fills: 2041 hits/fills: 0
FILLS: 2048 HITS: 2034
HITS/FILLS STATS: MAP_SIZE: 1
0 2
END HITS/FILLS STATS. CLEARING MAPS...
SIG: 0 hits: 0 fills: 5 hits/fills: 0
SIG: 4231732 hits: 2038 fills: 2043 hits/fills: 0
FILLS: 2048 HITS: 2038
HITS/FILLS STATS: MAP_SIZE: 1
0 2
END HITS/FILLS STATS. CLEARING MAPS...
SIG: 0 hits: 0 fills: 8 hits/fills: 0
SIG: 4231732 hits: 2032 fills: 2040 hits/fills: 0
FILLS: 2048 HITS: 2032
HITS/FILLS STATS: MAP_SIZE: 1
0 2
END HITS/FILLS STATS. CLEARING MAPS...
SIG: 0 hits: 0 fills: 6 hits/fills: 0
SIG: 4231732 hits: 2036 fills: 2042 hits/fills: 0
FILLS: 2048 HITS: 2036
HITS/FILLS STATS: MAP_SIZE: 1
0 2
END HITS/FILLS STATS. CLEARING MAPS...
SIG: 0 hits: 0 fills: 7 hits/fills: 0
SIG: 4231732 hits: 2035 fills: 2041 hits/fills: 0
FILLS: 2048 HITS: 2035
HITS/FILLS STATS: MAP_SIZE: 1
0 2
END HITS/FILLS STATS. CLEARING MAPS...
SIG: 0 hits: 0 fills: 5 hits/fills: 0
SIG: 4231732 hits: 2035 fills: 2043 hits/fills: 0
FILLS: 2048 HITS: 2035
HITS/FILLS STATS: MAP_SIZE: 1
0 2
END HITS/FILLS STATS. CLEARING MAPS...
SIG: 0 hits: 0 fills: 4 hits/fills: 0
SIG: 4231732 hits: 2043 fills: 2044 hits/fills: 0
FILLS: 2048 HITS: 2043
HITS/FILLS STATS: MAP_SIZE: 1
0 2
END HITS/FILLS STATS. CLEARING MAPS...
SIG: 0 hits: 0 fills: 9 hits/fills: 0
SIG: 4231732 hits: 2029 fills: 2039 hits/fills: 0
FILLS: 2048 HITS: 2029
HITS/FILLS STATS: MAP_SIZE: 1
0 2
END HITS/FILLS STATS. CLEARING MAPS...
SIG: 0 hits: 0 fills: 2 hits/fills: 0
SIG: 4231732 hits: 2045 fills: 2046 hits/fills: 0
FILLS: 2048 HITS: 2045
HITS/FILLS STATS: MAP_SIZE: 1
0 2
END HITS/FILLS STATS. CLEARING MAPS...
SIG: 0 hits: 0 fills: 6 hits/fills: 0
SIG: 4231732 hits: 2035 fills: 2042 hits/fills: 0
FILLS: 2048 HITS: 2035
HITS/FILLS STATS: MAP_SIZE: 1
0 2
END HITS/FILLS STATS. CLEARING MAPS...
SIG: 0 hits: 0 fills: 4 hits/fills: 0
SIG: 4231732 hits: 2041 fills: 2044 hits/fills: 0
FILLS: 2048 HITS: 2041
HITS/FILLS STATS: MAP_SIZE: 1
0 2
END HITS/FILLS STATS. CLEARING MAPS...
SIG: 0 hits: 0 fills: 4 hits/fills: 0
SIG: 4231732 hits: 2039 fills: 2044 hits/fills: 0
FILLS: 2048 HITS: 2039
HITS/FILLS STATS: MAP_SIZE: 1
0 2
END HITS/FILLS STATS. CLEARING MAPS...
SIG: 0 hits: 0 fills: 5 hits/fills: 0
SIG: 4231732 hits: 2038 fills: 2043 hits/fills: 0
FILLS: 2048 HITS: 2038
HITS/FILLS STATS: MAP_SIZE: 1
0 2
END HITS/FILLS STATS. CLEARING MAPS...
SIG: 0 hits: 0 fills: 2 hits/fills: 0
SIG: 4231732 hits: 2043 fills: 2046 hits/fills: 0
FILLS: 2048 HITS: 2043
HITS/FILLS STATS: MAP_SIZE: 1
0 2
END HITS/FILLS STATS. CLEARING MAPS...
SIG: 0 hits: 0 fills: 1 hits/fills: 0
SIG: 4231732 hits: 2048 fills: 2047 hits/fills: 1
FILLS: 2048 HITS: 2048
HITS/FILLS STATS: MAP_SIZE: 2
0 1
1 1
END HITS/FILLS STATS. CLEARING MAPS...
SIG: 4231732 hits: 2046 fills: 2048 hits/fills: 0
FILLS: 2048 HITS: 2046
HITS/FILLS STATS: MAP_SIZE: 1
0 1
END HITS/FILLS STATS. CLEARING MAPS...
SIG: 0 hits: 0 fills: 41 hits/fills: 0
SIG: 4231732 hits: 1967 fills: 2007 hits/fills: 0
FILLS: 2048 HITS: 1967
HITS/FILLS STATS: MAP_SIZE: 1
0 2
END HITS/FILLS STATS. CLEARING MAPS...
SIG: 0 hits: 0 fills: 5 hits/fills: 0
SIG: 4231732 hits: 2038 fills: 2043 hits/fills: 0
FILLS: 2048 HITS: 2038
HITS/FILLS STATS: MAP_SIZE: 1
0 2
END HITS/FILLS STATS. CLEARING MAPS...
SIG: 0 hits: 0 fills: 1 hits/fills: 0
SIG: 4231732 hits: 2046 fills: 2047 hits/fills: 0
FILLS: 2048 HITS: 2046
HITS/FILLS STATS: MAP_SIZE: 1
0 2
END HITS/FILLS STATS. CLEARING MAPS...
SIG: 0 hits: 0 fills: 5 hits/fills: 0
SIG: 4231732 hits: 2037 fills: 2043 hits/fills: 0
FILLS: 2048 HITS: 2037
HITS/FILLS STATS: MAP_SIZE: 1
0 2
END HITS/FILLS STATS. CLEARING MAPS...
SIG: 0 hits: 0 fills: 4 hits/fills: 0
SIG: 4231732 hits: 2040 fills: 2044 hits/fills: 0
FILLS: 2048 HITS: 2040
HITS/FILLS STATS: MAP_SIZE: 1
0 2
END HITS/FILLS STATS. CLEARING MAPS...
SIG: 0 hits: 0 fills: 6 hits/fills: 0
SIG: 4231732 hits: 2035 fills: 2042 hits/fills: 0
FILLS: 2048 HITS: 2035
HITS/FILLS STATS: MAP_SIZE: 1
0 2
END HITS/FILLS STATS. CLEARING MAPS...
SIG: 0 hits: 0 fills: 4 hits/fills: 0
SIG: 4231732 hits: 2041 fills: 2044 hits/fills: 0
FILLS: 2048 HITS: 2041
HITS/FILLS STATS: MAP_SIZE: 1
0 2
END HITS/FILLS STATS. CLEARING MAPS...
SIG: 0 hits: 0 fills: 4 hits/fills: 0
SIG: 4231732 hits: 2041 fills: 2044 hits/fills: 0
FILLS: 2048 HITS: 2041
HITS/FILLS STATS: MAP_SIZE: 1
0 2
END HITS/FILLS STATS. CLEARING MAPS...
SIG: 0 hits: 0 fills: 5 hits/fills: 0
SIG: 4231732 hits: 2035 fills: 2043 hits/fills: 0
FILLS: 2048 HITS: 2035
HITS/FILLS STATS: MAP_SIZE: 1
0 2
END HITS/FILLS STATS. CLEARING MAPS...
SIG: 0 hits: 0 fills: 5 hits/fills: 0
SIG: 4231732 hits: 2042 fills: 2043 hits/fills: 0
FILLS: 2048 HITS: 2042
HITS/FILLS STATS: MAP_SIZE: 1
0 2
END HITS/FILLS STATS. CLEARING MAPS...
SIG: 0 hits: 0 fills: 6 hits/fills: 0
SIG: 4231732 hits: 2036 fills: 2042 hits/fills: 0
FILLS: 2048 HITS: 2036
HITS/FILLS STATS: MAP_SIZE: 1
0 2
END HITS/FILLS STATS. CLEARING MAPS...
SIG: 0 hits: 0 fills: 2 hits/fills: 0
SIG: 4231732 hits: 2043 fills: 2046 hits/fills: 0
FILLS: 2048 HITS: 2043
HITS/FILLS STATS: MAP_SIZE: 1
0 2
END HITS/FILLS STATS. CLEARING MAPS...
SIG: 0 hits: 0 fills: 6 hits/fills: 0
SIG: 4231732 hits: 2037 fills: 2042 hits/fills: 0
FILLS: 2048 HITS: 2037
HITS/FILLS STATS: MAP_SIZE: 1
0 2
END HITS/FILLS STATS. CLEARING MAPS...
SIG: 0 hits: 0 fills: 2 hits/fills: 0
SIG: 4195088 hits: 0 fills: 2 hits/fills: 0
SIG: 4197840 hits: 0 fills: 1 hits/fills: 0
SIG: 4197960 hits: 0 fills: 2 hits/fills: 0
SIG: 4198590 hits: 0 fills: 1 hits/fills: 0
SIG: 4198595 hits: 0 fills: 1 hits/fills: 0
SIG: 4199392 hits: 0 fills: 1 hits/fills: 0
SIG: 4199401 hits: 0 fills: 1 hits/fills: 0
SIG: 4199429 hits: 0 fills: 1 hits/fills: 0
SIG: 4199488 hits: 0 fills: 1 hits/fills: 0
SIG: 4231732 hits: 1765 fills: 1747 hits/fills: 1
SIG: 4231761 hits: 0 fills: 1 hits/fills: 0
SIG: 4232112 hits: 0 fills: 1 hits/fills: 0
SIG: 4232128 hits: 0 fills: 1 hits/fills: 0
SIG: 4232424 hits: 0 fills: 1 hits/fills: 0
SIG: 4232450 hits: 0 fills: 1 hits/fills: 0
SIG: 4245568 hits: 0 fills: 1 hits/fills: 0
SIG: 4245600 hits: 0 fills: 1 hits/fills: 0
SIG: 4245632 hits: 0 fills: 1 hits/fills: 0
SIG: 4245872 hits: 0 fills: 1 hits/fills: 0
SIG: 4245890 hits: 0 fills: 1 hits/fills: 0
SIG: 4245904 hits: 0 fills: 1 hits/fills: 0
SIG: 4245952 hits: 0 fills: 1 hits/fills: 0
SIG: 4246017 hits: 0 fills: 1 hits/fills: 0
SIG: 4246090 hits: 0 fills: 1 hits/fills: 0
SIG: 4246128 hits: 0 fills: 1 hits/fills: 0
SIG: 4252528 hits: 0 fills: 1 hits/fills: 0
SIG: 4252540 hits: 0 fills: 1 hits/fills: 0
SIG: 4252547 hits: 0 fills: 1 hits/fills: 0
SIG: 4252550 hits: 0 fills: 1 hits/fills: 0
SIG: 4252562 hits: 0 fills: 1 hits/fills: 0
SIG: 4252569 hits: 0 fills: 1 hits/fills: 0
SIG: 4252578 hits: 0 fills: 1 hits/fills: 0
SIG: 4252589 hits: 0 fills: 1 hits/fills: 0
SIG: 4252610 hits: 0 fills: 1 hits/fills: 0
SIG: 4252641 hits: 0 fills: 1 hits/fills: 0
SIG: 4252672 hits: 0 fills: 1 hits/fills: 0
SIG: 4252678 hits: 0 fills: 1 hits/fills: 0
SIG: 4252738 hits: 0 fills: 1 hits/fills: 0
SIG: 4252816 hits: 0 fills: 1 hits/fills: 0
SIG: 4261472 hits: 0 fills: 1 hits/fills: 0
SIG: 4261504 hits: 0 fills: 1 hits/fills: 0
SIG: 4261543 hits: 0 fills: 1 hits/fills: 0
SIG: 4261571 hits: 0 fills: 1 hits/fills: 0
SIG: 4261648 hits: 0 fills: 1 hits/fills: 0
SIG: 4261712 hits: 0 fills: 1 hits/fills: 0
SIG: 4261792 hits: 0 fills: 1 hits/fills: 0
SIG: 4261835 hits: 0 fills: 1 hits/fills: 0
SIG: 4261920 hits: 0 fills: 1 hits/fills: 0
SIG: 4263072 hits: 0 fills: 1 hits/fills: 0
SIG: 4263106 hits: 0 fills: 1 hits/fills: 0
SIG: 4263456 hits: 0 fills: 1 hits/fills: 0
SIG: 4263490 hits: 0 fills: 1 hits/fills: 0
SIG: 4263523 hits: 0 fills: 1 hits/fills: 0
SIG: 4263554 hits: 0 fills: 1 hits/fills: 0
SIG: 4263658 hits: 0 fills: 1 hits/fills: 0
SIG: 4263681 hits: 0 fills: 1 hits/fills: 0
SIG: 4263748 hits: 0 fills: 1 hits/fills: 0
SIG: 4263760 hits: 0 fills: 1 hits/fills: 0
SIG: 4263810 hits: 0 fills: 1 hits/fills: 0
SIG: 4263872 hits: 0 fills: 1 hits/fills: 0
SIG: 4263876 hits: 0 fills: 1 hits/fills: 0
SIG: 4264047 hits: 0 fills: 1 hits/fills: 0
SIG: 4264240 hits: 0 fills: 1 hits/fills: 0
SIG: 4264257 hits: 0 fills: 1 hits/fills: 0
SIG: 4264323 hits: 0 fills: 1 hits/fills: 0
SIG: 4268224 hits: 0 fills: 1 hits/fills: 0
SIG: 4268288 hits: 0 fills: 1 hits/fills: 0
SIG: 4268352 hits: 0 fills: 1 hits/fills: 0
SIG: 4268419 hits: 0 fills: 1 hits/fills: 0
SIG: 4268560 hits: 0 fills: 1 hits/fills: 0
SIG: 4268656 hits: 0 fills: 1 hits/fills: 0
SIG: 4268674 hits: 0 fills: 1 hits/fills: 0
SIG: 4270896 hits: 0 fills: 1 hits/fills: 0
SIG: 4270916 hits: 0 fills: 1 hits/fills: 0
SIG: 4270923 hits: 0 fills: 1 hits/fills: 0
SIG: 4271648 hits: 0 fills: 2 hits/fills: 0
SIG: 4271696 hits: 0 fills: 1 hits/fills: 0
SIG: 4271776 hits: 0 fills: 1 hits/fills: 0
SIG: 4271888 hits: 0 fills: 1 hits/fills: 0
SIG: 4271902 hits: 0 fills: 1 hits/fills: 0
SIG: 4271937 hits: 0 fills: 1 hits/fills: 0
SIG: 4272002 hits: 0 fills: 1 hits/fills: 0
SIG: 4272073 hits: 0 fills: 1 hits/fills: 0
SIG: 4272152 hits: 0 fills: 1 hits/fills: 0
SIG: 4272496 hits: 0 fills: 1 hits/fills: 0
SIG: 4272514 hits: 0 fills: 1 hits/fills: 0
SIG: 4272578 hits: 0 fills: 1 hits/fills: 0
SIG: 4272646 hits: 0 fills: 1 hits/fills: 0
SIG: 4274000 hits: 0 fills: 1 hits/fills: 0
SIG: 4274131 hits: 0 fills: 1 hits/fills: 0
SIG: 4274141 hits: 0 fills: 1 hits/fills: 0
SIG: 4274195 hits: 0 fills: 1 hits/fills: 0
SIG: 4274279 hits: 0 fills: 2 hits/fills: 0
SIG: 4274335 hits: 0 fills: 1 hits/fills: 0
SIG: 4274408 hits: 0 fills: 1 hits/fills: 0
SIG: 4274434 hits: 0 fills: 2 hits/fills: 0
SIG: 4274512 hits: 0 fills: 2 hits/fills: 0
SIG: 4274624 hits: 0 fills: 1 hits/fills: 0
SIG: 4274689 hits: 0 fills: 1 hits/fills: 0
SIG: 4274754 hits: 0 fills: 1 hits/fills: 0
SIG: 4274848 hits: 0 fills: 1 hits/fills: 0
SIG: 4274880 hits: 0 fills: 1 hits/fills: 0
SIG: 4275008 hits: 0 fills: 1 hits/fills: 0
SIG: 4275072 hits: 0 fills: 1 hits/fills: 0
SIG: 4275141 hits: 0 fills: 1 hits/fills: 0
SIG: 4299952 hits: 0 fills: 2 hits/fills: 0
SIG: 4299968 hits: 0 fills: 1 hits/fills: 0
SIG: 4300152 hits: 0 fills: 1 hits/fills: 0
SIG: 4308480 hits: 0 fills: 1 hits/fills: 0
SIG: 4308672 hits: 0 fills: 1 hits/fills: 0
SIG: 4308722 hits: 0 fills: 1 hits/fills: 0
SIG: 4308733 hits: 0 fills: 1 hits/fills: 0
SIG: 4308741 hits: 0 fills: 1 hits/fills: 0
SIG: 4308801 hits: 0 fills: 1 hits/fills: 0
SIG: 4309104 hits: 0 fills: 1 hits/fills: 0
SIG: 4309121 hits: 0 fills: 4 hits/fills: 0
SIG: 4309153 hits: 0 fills: 2 hits/fills: 0
SIG: 4309187 hits: 0 fills: 1 hits/fills: 0
SIG: 4309200 hits: 0 fills: 1 hits/fills: 0
SIG: 4309280 hits: 0 fills: 1 hits/fills: 0
SIG: 4313664 hits: 0 fills: 1 hits/fills: 0
SIG: 4313678 hits: 0 fills: 1 hits/fills: 0
SIG: 4313744 hits: 0 fills: 1 hits/fills: 0
SIG: 4314784 hits: 0 fills: 1 hits/fills: 0
SIG: 4314817 hits: 0 fills: 1 hits/fills: 0
SIG: 4314907 hits: 0 fills: 1 hits/fills: 0
SIG: 4317248 hits: 0 fills: 1 hits/fills: 0
SIG: 4317274 hits: 0 fills: 1 hits/fills: 0
SIG: 4317312 hits: 0 fills: 1 hits/fills: 0
SIG: 4357360 hits: 0 fills: 1 hits/fills: 0
SIG: 4357376 hits: 0 fills: 1 hits/fills: 0
SIG: 4357584 hits: 0 fills: 1 hits/fills: 0
SIG: 4357872 hits: 0 fills: 1 hits/fills: 0
SIG: 4357888 hits: 0 fills: 1 hits/fills: 0
SIG: 4365744 hits: 0 fills: 1 hits/fills: 0
SIG: 4365760 hits: 0 fills: 1 hits/fills: 0
SIG: 4365832 hits: 0 fills: 2 hits/fills: 0
SIG: 4365844 hits: 0 fills: 1 hits/fills: 0
SIG: 4365892 hits: 0 fills: 1 hits/fills: 0
SIG: 4365959 hits: 0 fills: 1 hits/fills: 0
SIG: 4366017 hits: 0 fills: 1 hits/fills: 0
SIG: 4370464 hits: 0 fills: 1 hits/fills: 0
SIG: 4414496 hits: 0 fills: 1 hits/fills: 0
SIG: 4417984 hits: 0 fills: 1 hits/fills: 0
SIG: 4418007 hits: 0 fills: 1 hits/fills: 0
SIG: 4418048 hits: 0 fills: 1 hits/fills: 0
SIG: 4418112 hits: 0 fills: 1 hits/fills: 0
SIG: 4418119 hits: 0 fills: 1 hits/fills: 0
SIG: 4418134 hits: 0 fills: 1 hits/fills: 0
SIG: 4418168 hits: 0 fills: 1 hits/fills: 0
SIG: 4418176 hits: 0 fills: 1 hits/fills: 0
SIG: 4418211 hits: 0 fills: 1 hits/fills: 0
SIG: 4418242 hits: 0 fills: 1 hits/fills: 0
SIG: 4418323 hits: 0 fills: 1 hits/fills: 0
SIG: 4418330 hits: 0 fills: 1 hits/fills: 0
SIG: 4418587 hits: 0 fills: 1 hits/fills: 0
SIG: 4418599 hits: 0 fills: 1 hits/fills: 0
SIG: 4418628 hits: 0 fills: 1 hits/fills: 0
SIG: 4418692 hits: 0 fills: 1 hits/fills: 0
SIG: 4418754 hits: 0 fills: 1 hits/fills: 0
SIG: 4418824 hits: 0 fills: 1 hits/fills: 0
SIG: 4419104 hits: 0 fills: 1 hits/fills: 0
SIG: 4419136 hits: 0 fills: 1 hits/fills: 0
SIG: 4419236 hits: 0 fills: 1 hits/fills: 0
SIG: 4419253 hits: 0 fills: 1 hits/fills: 0
SIG: 4419266 hits: 0 fills: 1 hits/fills: 0
SIG: 4419450 hits: 0 fills: 1 hits/fills: 0
SIG: 4419461 hits: 0 fills: 1 hits/fills: 0
SIG: 4439984 hits: 0 fills: 1 hits/fills: 0
SIG: 4439996 hits: 0 fills: 1 hits/fills: 0
SIG: 4440001 hits: 0 fills: 1 hits/fills: 0
SIG: 4440006 hits: 0 fills: 1 hits/fills: 0
SIG: 4440104 hits: 0 fills: 2 hits/fills: 0
SIG: 4440132 hits: 0 fills: 4 hits/fills: 0
SIG: 4440140 hits: 0 fills: 17 hits/fills: 0
SIG: 4445984 hits: 0 fills: 1 hits/fills: 0
SIG: 4446020 hits: 0 fills: 1 hits/fills: 0
SIG: 4446042 hits: 0 fills: 1 hits/fills: 0
SIG: 4446050 hits: 0 fills: 1 hits/fills: 0
SIG: 4446061 hits: 0 fills: 1 hits/fills: 0
SIG: 4446072 hits: 0 fills: 1 hits/fills: 0
SIG: 4446084 hits: 0 fills: 1 hits/fills: 0
SIG: 4446087 hits: 0 fills: 1 hits/fills: 0
SIG: 4446143 hits: 0 fills: 1 hits/fills: 0
SIG: 4446148 hits: 0 fills: 1 hits/fills: 0
SIG: 4446213 hits: 0 fills: 1 hits/fills: 0
SIG: 4446277 hits: 0 fills: 1 hits/fills: 0
SIG: 4446337 hits: 0 fills: 1 hits/fills: 0
SIG: 4446432 hits: 0 fills: 1 hits/fills: 0
SIG: 4446512 hits: 0 fills: 1 hits/fills: 0
SIG: 4446516 hits: 0 fills: 1 hits/fills: 0
SIG: 4446531 hits: 0 fills: 1 hits/fills: 0
SIG: 4446562 hits: 0 fills: 2 hits/fills: 0
SIG: 4446568 hits: 0 fills: 1 hits/fills: 0
SIG: 4446592 hits: 0 fills: 1 hits/fills: 0
SIG: 4446636 hits: 0 fills: 1 hits/fills: 0
SIG: 4446660 hits: 0 fills: 1 hits/fills: 0
SIG: 4446667 hits: 0 fills: 1 hits/fills: 0
SIG: 4446722 hits: 0 fills: 1 hits/fills: 0
SIG: 4446734 hits: 0 fills: 1 hits/fills: 0
SIG: 4446785 hits: 0 fills: 1 hits/fills: 0
SIG: 4446872 hits: 0 fills: 1 hits/fills: 0
SIG: 4447008 hits: 0 fills: 1 hits/fills: 0
SIG: 4447017 hits: 0 fills: 1 hits/fills: 0
SIG: 4447136 hits: 0 fills: 1 hits/fills: 0
SIG: 4447168 hits: 0 fills: 2 hits/fills: 0
SIG: 4447196 hits: 0 fills: 1 hits/fills: 0
SIG: 4447217 hits: 0 fills: 1 hits/fills: 0
SIG: 4447235 hits: 0 fills: 2 hits/fills: 0
SIG: 4447245 hits: 0 fills: 1 hits/fills: 0
SIG: 4447303 hits: 0 fills: 1 hits/fills: 0
SIG: 4447361 hits: 0 fills: 1 hits/fills: 0
SIG: 4447404 hits: 0 fills: 1 hits/fills: 0
SIG: 4447424 hits: 0 fills: 1 hits/fills: 0
SIG: 4447552 hits: 0 fills: 1 hits/fills: 0
SIG: 4447564 hits: 0 fills: 1 hits/fills: 0
SIG: 4447571 hits: 0 fills: 1 hits/fills: 0
SIG: 4453192 hits: 0 fills: 1 hits/fills: 0
SIG: 4453250 hits: 0 fills: 1 hits/fills: 0
SIG: 4453328 hits: 0 fills: 1 hits/fills: 0
SIG: 4461485 hits: 0 fills: 1 hits/fills: 0
SIG: 4461505 hits: 0 fills: 1 hits/fills: 0
SIG: 4461572 hits: 0 fills: 1 hits/fills: 0
SIG: 4461773 hits: 0 fills: 1 hits/fills: 0
SIG: 4462449 hits: 0 fills: 1 hits/fills: 0
SIG: 4463050 hits: 0 fills: 1 hits/fills: 0
SIG: 4463059 hits: 0 fills: 3 hits/fills: 0
SIG: 4463106 hits: 0 fills: 1 hits/fills: 0
SIG: 4463960 hits: 0 fills: 1 hits/fills: 0
SIG: 4536928 hits: 0 fills: 1 hits/fills: 0
SIG: 4536962 hits: 0 fills: 1 hits/fills: 0
SIG: 4537040 hits: 0 fills: 1 hits/fills: 0
SIG: 4537089 hits: 0 fills: 2 hits/fills: 0
SIG: 4540768 hits: 0 fills: 1 hits/fills: 0
SIG: 4540802 hits: 0 fills: 1 hits/fills: 0
SIG: 4541920 hits: 0 fills: 1 hits/fills: 0
SIG: 4541954 hits: 0 fills: 1 hits/fills: 0
SIG: 4543077 hits: 0 fills: 1 hits/fills: 0
SIG: 4543104 hits: 0 fills: 1 hits/fills: 0
SIG: 4597856 hits: 0 fills: 1 hits/fills: 0
SIG: 4597889 hits: 0 fills: 1 hits/fills: 0
SIG: 4598480 hits: 0 fills: 1 hits/fills: 0
SIG: 4598494 hits: 0 fills: 1 hits/fills: 0
SIG: 4598928 hits: 0 fills: 1 hits/fills: 0
SIG: 4636256 hits: 0 fills: 1 hits/fills: 0
SIG: 4636308 hits: 0 fills: 2 hits/fills: 0
SIG: 4678368 hits: 0 fills: 1 hits/fills: 0
SIG: 4678378 hits: 0 fills: 1 hits/fills: 0
SIG: 4678382 hits: 0 fills: 1 hits/fills: 0
SIG: 4727088 hits: 0 fills: 1 hits/fills: 0
SIG: 4727096 hits: 0 fills: 1 hits/fills: 0
SIG: 4727119 hits: 0 fills: 1 hits/fills: 0
SIG: 4846368 hits: 0 fills: 1 hits/fills: 0
SIG: 4846384 hits: 0 fills: 1 hits/fills: 0
SIG: 4846394 hits: 0 fills: 1 hits/fills: 0
SIG: 4846401 hits: 0 fills: 1 hits/fills: 0
SIG: 4846418 hits: 0 fills: 1 hits/fills: 0
SIG: 4846430 hits: 0 fills: 1 hits/fills: 0
SIG: 4846530 hits: 0 fills: 1 hits/fills: 0
SIG: 4846624 hits: 0 fills: 1 hits/fills: 0
SIG: 4855512 hits: 0 fills: 1 hits/fills: 0
FILLS: 2048 HITS: 1765
HITS/FILLS STATS: MAP_SIZE: 2
0 261
1 1
END HITS/FILLS STATS. CLEARING MAPS...
SIG: 4231732 hits: 2027 fills: 2048 hits/fills: 0
SIG: 4263760 hits: 1 fills: 0 hits/fills: 2
SIG: 4447404 hits: 1 fills: 0 hits/fills: 2
FILLS: 2048 HITS: 2029
HITS/FILLS STATS: MAP_SIZE: 2
0 1
2 2
END HITS/FILLS STATS. CLEARING MAPS...
SIG: 0 hits: 0 fills: 57 hits/fills: 0
SIG: 4231732 hits: 1935 fills: 1991 hits/fills: 0
FILLS: 2048 HITS: 1935
HITS/FILLS STATS: MAP_SIZE: 1
0 2
END HITS/FILLS STATS. CLEARING MAPS...
SIG: 0 hits: 0 fills: 5 hits/fills: 0
SIG: 4231732 hits: 2037 fills: 2043 hits/fills: 0
FILLS: 2048 HITS: 2037
HITS/FILLS STATS: MAP_SIZE: 1
0 2
END HITS/FILLS STATS. CLEARING MAPS...
SIG: 0 hits: 0 fills: 10 hits/fills: 0
SIG: 4231732 hits: 2028 fills: 2038 hits/fills: 0
FILLS: 2048 HITS: 2028
HITS/FILLS STATS: MAP_SIZE: 1
0 2
END HITS/FILLS STATS. CLEARING MAPS...
SIG: 0 hits: 0 fills: 3 hits/fills: 0
SIG: 4231732 hits: 2043 fills: 2045 hits/fills: 0
FILLS: 2048 HITS: 2043
HITS/FILLS STATS: MAP_SIZE: 1
0 2
END HITS/FILLS STATS. CLEARING MAPS...
SIG: 0 hits: 0 fills: 6 hits/fills: 0
SIG: 4231732 hits: 2031 fills: 2042 hits/fills: 0
FILLS: 2048 HITS: 2031
HITS/FILLS STATS: MAP_SIZE: 1
0 2
END HITS/FILLS STATS. CLEARING MAPS...
SIG: 0 hits: 0 fills: 7 hits/fills: 0
SIG: 4231732 hits: 2038 fills: 2041 hits/fills: 0
FILLS: 2048 HITS: 2038
HITS/FILLS STATS: MAP_SIZE: 1
0 2
END HITS/FILLS STATS. CLEARING MAPS...
SIG: 0 hits: 0 fills: 4 hits/fills: 0
SIG: 4231732 hits: 2040 fills: 2044 hits/fills: 0
FILLS: 2048 HITS: 2040
HITS/FILLS STATS: MAP_SIZE: 1
0 2
END HITS/FILLS STATS. CLEARING MAPS...
SIG: 0 hits: 0 fills: 6 hits/fills: 0
SIG: 4231732 hits: 2037 fills: 2042 hits/fills: 0
FILLS: 2048 HITS: 2037
HITS/FILLS STATS: MAP_SIZE: 1
0 2
END HITS/FILLS STATS. CLEARING MAPS...
SIG: 0 hits: 0 fills: 6 hits/fills: 0
SIG: 4231732 hits: 2035 fills: 2042 hits/fills: 0
FILLS: 2048 HITS: 2035
HITS/FILLS STATS: MAP_SIZE: 1
0 2
END HITS/FILLS STATS. CLEARING MAPS...
Heartbeat CPU 0 instructions: 1000001 cycles: 8179137 heartbeat IPC: 0.122262 cumulative IPC: 0.110656 (Simulation time: 0 hr 0 min 15 sec) 
SIG: 0 hits: 0 fills: 2 hits/fills: 0
SIG: 4231732 hits: 2044 fills: 2046 hits/fills: 0
FILLS: 2048 HITS: 2044
HITS/FILLS STATS: MAP_SIZE: 1
0 2
END HITS/FILLS STATS. CLEARING MAPS...
SIG: 0 hits: 0 fills: 5 hits/fills: 0
SIG: 4231732 hits: 2035 fills: 2043 hits/fills: 0
FILLS: 2048 HITS: 2035
HITS/FILLS STATS: MAP_SIZE: 1
0 2
END HITS/FILLS STATS. CLEARING MAPS...
SIG: 0 hits: 0 fills: 4 hits/fills: 0
SIG: 4231732 hits: 2043 fills: 2044 hits/fills: 0
FILLS: 2048 HITS: 2043
HITS/FILLS STATS: MAP_SIZE: 1
0 2
END HITS/FILLS STATS. CLEARING MAPS...
SIG: 0 hits: 0 fills: 4 hits/fills: 0
SIG: 4231732 hits: 2039 fills: 2044 hits/fills: 0
FILLS: 2048 HITS: 2039
HITS/FILLS STATS: MAP_SIZE: 1
0 2
END HITS/FILLS STATS. CLEARING MAPS...
SIG: 0 hits: 0 fills: 5 hits/fills: 0
SIG: 4231732 hits: 2037 fills: 2043 hits/fills: 0
FILLS: 2048 HITS: 2037
HITS/FILLS STATS: MAP_SIZE: 1
0 2
END HITS/FILLS STATS. CLEARING MAPS...
SIG: 0 hits: 0 fills: 1 hits/fills: 0
SIG: 4231732 hits: 2045 fills: 2047 hits/fills: 0
FILLS: 2048 HITS: 2045
HITS/FILLS STATS: MAP_SIZE: 1
0 2
END HITS/FILLS STATS. CLEARING MAPS...
SIG: 0 hits: 0 fills: 5 hits/fills: 0
SIG: 4231732 hits: 2041 fills: 2043 hits/fills: 0
FILLS: 2048 HITS: 2041
HITS/FILLS STATS: MAP_SIZE: 1
0 2
END HITS/FILLS STATS. CLEARING MAPS...
SIG: 0 hits: 0 fills: 7 hits/fills: 0
SIG: 4231732 hits: 2033 fills: 2041 hits/fills: 0
FILLS: 2048 HITS: 2033
HITS/FILLS STATS: MAP_SIZE: 1
0 2
END HITS/FILLS STATS. CLEARING MAPS...
SIG: 0 hits: 0 fills: 5 hits/fills: 0
SIG: 4231732 hits: 2039 fills: 2043 hits/fills: 0
FILLS: 2048 HITS: 2039
HITS/FILLS STATS: MAP_SIZE: 1
0 2
END HITS/FILLS STATS. CLEARING MAPS...
SIG: 4231732 hits: 2048 fills: 2048 hits/fills: 1
FILLS: 2048 HITS: 2048
HITS/FILLS STATS: MAP_SIZE: 1
1 1
END HITS/FILLS STATS. CLEARING MAPS...
SIG: 0 hits: 0 fills: 1 hits/fills: 0
SIG: 4231732 hits: 2046 fills: 2047 hits/fills: 0
FILLS: 2048 HITS: 2046
HITS/FILLS STATS: MAP_SIZE: 1
0 2
END HITS/FILLS STATS. CLEARING MAPS...
SIG: 0 hits: 0 fills: 44 hits/fills: 0
SIG: 4231732 hits: 1957 fills: 2004 hits/fills: 0
FILLS: 2048 HITS: 1957
HITS/FILLS STATS: MAP_SIZE: 1
0 2
END HITS/FILLS STATS. CLEARING MAPS...
SIG: 0 hits: 0 fills: 11 hits/fills: 0
SIG: 4231732 hits: 2030 fills: 2037 hits/fills: 0
FILLS: 2048 HITS: 2030
HITS/FILLS STATS: MAP_SIZE: 1
0 2
END HITS/FILLS STATS. CLEARING MAPS...
SIG: 0 hits: 0 fills: 8 hits/fills: 0
SIG: 4231706 hits: 0 fills: 1 hits/fills: 0
SIG: 4231732 hits: 2022 fills: 2030 hits/fills: 0
SIG: 4288866 hits: 0 fills: 1 hits/fills: 0
SIG: 4289302 hits: 1 fills: 1 hits/fills: 1
SIG: 4290275 hits: 0 fills: 1 hits/fills: 0
SIG: 4290279 hits: 0 fills: 1 hits/fills: 0
SIG: 4290566 hits: 0 fills: 1 hits/fills: 0
SIG: 4293332 hits: 0 fills: 1 hits/fills: 0
SIG: 4293363 hits: 1 fills: 1 hits/fills: 1
SIG: 4298493 hits: 0 fills: 1 hits/fills: 0
SIG: 4298513 hits: 0 fills: 1 hits/fills: 0
FILLS: 2048 HITS: 2024
HITS/FILLS STATS: MAP_SIZE: 2
0 10
1 2
END HITS/FILLS STATS. CLEARING MAPS...
SIG: 0 hits: 0 fills: 7 hits/fills: 0
SIG: 4231732 hits: 2030 fills: 2041 hits/fills: 0
FILLS: 2048 HITS: 2030
HITS/FILLS STATS: MAP_SIZE: 1
0 2
END HITS/FILLS STATS. CLEARING MAPS...
SIG: 0 hits: 0 fills: 3 hits/fills: 0
SIG: 4231732 hits: 2044 fills: 2045 hits/fills: 0
FILLS: 2048 HITS: 2044
HITS/FILLS STATS: MAP_SIZE: 1
0 2
END HITS/FILLS STATS. CLEARING MAPS...
SIG: 0 hits: 0 fills: 4 hits/fills: 0
SIG: 4231732 hits: 2042 fills: 2044 hits/fills: 0
FILLS: 2048 HITS: 2042
HITS/FILLS STATS: MAP_SIZE: 1
0 2
END HITS/FILLS STATS. CLEARING MAPS...
SIG: 0 hits: 0 fills: 10 hits/fills: 0
SIG: 4231732 hits: 2027 fills: 2038 hits/fills: 0
FILLS: 2048 HITS: 2027
HITS/FILLS STATS: MAP_SIZE: 1
0 2
END HITS/FILLS STATS. CLEARING MAPS...
SIG: 0 hits: 0 fills: 6 hits/fills: 0
SIG: 4231732 hits: 2036 fills: 2042 hits/fills: 0
FILLS: 2048 HITS: 2036
HITS/FILLS STATS: MAP_SIZE: 1
0 2
END HITS/FILLS STATS. CLEARING MAPS...
SIG: 0 hits: 0 fills: 3 hits/fills: 0
SIG: 4231732 hits: 2042 fills: 2045 hits/fills: 0
FILLS: 2048 HITS: 2042
HITS/FILLS STATS: MAP_SIZE: 1
0 2
END HITS/FILLS STATS. CLEARING MAPS...
SIG: 0 hits: 0 fills: 6 hits/fills: 0
SIG: 4231732 hits: 2036 fills: 2042 hits/fills: 0
FILLS: 2048 HITS: 2036
HITS/FILLS STATS: MAP_SIZE: 1
0 2
END HITS/FILLS STATS. CLEARING MAPS...
SIG: 0 hits: 0 fills: 5 hits/fills: 0
SIG: 4231732 hits: 2035 fills: 2043 hits/fills: 0
FILLS: 2048 HITS: 2035
HITS/FILLS STATS: MAP_SIZE: 1
0 2
END HITS/FILLS STATS. CLEARING MAPS...
SIG: 0 hits: 0 fills: 3 hits/fills: 0
SIG: 4231732 hits: 2046 fills: 2045 hits/fills: 1
FILLS: 2048 HITS: 2046
HITS/FILLS STATS: MAP_SIZE: 2
0 1
1 1
END HITS/FILLS STATS. CLEARING MAPS...
SIG: 0 hits: 0 fills: 1 hits/fills: 0
SIG: 4231732 hits: 2046 fills: 2047 hits/fills: 0
FILLS: 2048 HITS: 2046
HITS/FILLS STATS: MAP_SIZE: 1
0 2
END HITS/FILLS STATS. CLEARING MAPS...
SIG: 0 hits: 0 fills: 42 hits/fills: 0
SIG: 4231732 hits: 1963 fills: 2006 hits/fills: 0
FILLS: 2048 HITS: 1963
HITS/FILLS STATS: MAP_SIZE: 1
0 2
END HITS/FILLS STATS. CLEARING MAPS...
SIG: 0 hits: 0 fills: 4 hits/fills: 0
SIG: 4231732 hits: 2039 fills: 2044 hits/fills: 0
FILLS: 2048 HITS: 2039
HITS/FILLS STATS: MAP_SIZE: 1
0 2
END HITS/FILLS STATS. CLEARING MAPS...
SIG: 0 hits: 0 fills: 3 hits/fills: 0
SIG: 4231732 hits: 2041 fills: 2045 hits/fills: 0
FILLS: 2048 HITS: 2041
HITS/FILLS STATS: MAP_SIZE: 1
0 2
END HITS/FILLS STATS. CLEARING MAPS...
SIG: 0 hits: 0 fills: 2 hits/fills: 0
SIG: 4231732 hits: 2047 fills: 2046 hits/fills: 1
FILLS: 2048 HITS: 2047
HITS/FILLS STATS: MAP_SIZE: 2
0 1
1 1
END HITS/FILLS STATS. CLEARING MAPS...
SIG: 4231732 hits: 2047 fills: 2048 hits/fills: 0
FILLS: 2048 HITS: 2047
HITS/FILLS STATS: MAP_SIZE: 1
0 1
END HITS/FILLS STATS. CLEARING MAPS...
SIG: 0 hits: 0 fills: 79 hits/fills: 0
SIG: 4231732 hits: 1890 fills: 1969 hits/fills: 0
FILLS: 2048 HITS: 1890
HITS/FILLS STATS: MAP_SIZE: 1
0 2
END HITS/FILLS STATS. CLEARING MAPS...
SIG: 0 hits: 0 fills: 4 hits/fills: 0
SIG: 4231732 hits: 2040 fills: 2044 hits/fills: 0
FILLS: 2048 HITS: 2040
HITS/FILLS STATS: MAP_SIZE: 1
0 2
END HITS/FILLS STATS. CLEARING MAPS...
SIG: 0 hits: 0 fills: 11 hits/fills: 0
SIG: 4231732 hits: 2026 fills: 2037 hits/fills: 0
FILLS: 2048 HITS: 2026
HITS/FILLS STATS: MAP_SIZE: 1
0 2
END HITS/FILLS STATS. CLEARING MAPS...
SIG: 0 hits: 0 fills: 4 hits/fills: 0
SIG: 4231732 hits: 2037 fills: 2044 hits/fills: 0
FILLS: 2048 HITS: 2037
HITS/FILLS STATS: MAP_SIZE: 1
0 2
END HITS/FILLS STATS. CLEARING MAPS...
SIG: 0 hits: 0 fills: 6 hits/fills: 0
SIG: 4231732 hits: 2035 fills: 2042 hits/fills: 0
FILLS: 2048 HITS: 2035
HITS/FILLS STATS: MAP_SIZE: 1
0 2
END HITS/FILLS STATS. CLEARING MAPS...
SIG: 0 hits: 0 fills: 3 hits/fills: 0
SIG: 4231732 hits: 2045 fills: 2045 hits/fills: 1
FILLS: 2048 HITS: 2045
HITS/FILLS STATS: MAP_SIZE: 2
0 1
1 1
END HITS/FILLS STATS. CLEARING MAPS...
SIG: 4231732 hits: 2050 fills: 2048 hits/fills: 1
FILLS: 2048 HITS: 2050
HITS/FILLS STATS: MAP_SIZE: 1
1 1
END HITS/FILLS STATS. CLEARING MAPS...
SIG: 4231732 hits: 2044 fills: 2048 hits/fills: 0
FILLS: 2048 HITS: 2044
HITS/FILLS STATS: MAP_SIZE: 1
0 1
END HITS/FILLS STATS. CLEARING MAPS...
SIG: 0 hits: 0 fills: 48 hits/fills: 0
SIG: 4231732 hits: 1955 fills: 2000 hits/fills: 0
FILLS: 2048 HITS: 1955
HITS/FILLS STATS: MAP_SIZE: 1
0 2
END HITS/FILLS STATS. CLEARING MAPS...
SIG: 0 hits: 0 fills: 3 hits/fills: 0
SIG: 4231732 hits: 2040 fills: 2045 hits/fills: 0
FILLS: 2048 HITS: 2040
HITS/FILLS STATS: MAP_SIZE: 1
0 2
END HITS/FILLS STATS. CLEARING MAPS...
SIG: 0 hits: 0 fills: 8 hits/fills: 0
SIG: 4231732 hits: 2032 fills: 2040 hits/fills: 0
FILLS: 2048 HITS: 2032
HITS/FILLS STATS: MAP_SIZE: 1
0 2
END HITS/FILLS STATS. CLEARING MAPS...
SIG: 0 hits: 0 fills: 10 hits/fills: 0
SIG: 4231732 hits: 2028 fills: 2038 hits/fills: 0
FILLS: 2048 HITS: 2028
HITS/FILLS STATS: MAP_SIZE: 1
0 2
END HITS/FILLS STATS. CLEARING MAPS...
SIG: 0 hits: 0 fills: 7 hits/fills: 0
SIG: 4231732 hits: 2037 fills: 2041 hits/fills: 0
FILLS: 2048 HITS: 2037
HITS/FILLS STATS: MAP_SIZE: 1
0 2
END HITS/FILLS STATS. CLEARING MAPS...
SIG: 0 hits: 0 fills: 7 hits/fills: 0
SIG: 4231732 hits: 2034 fills: 2041 hits/fills: 0
FILLS: 2048 HITS: 2034
HITS/FILLS STATS: MAP_SIZE: 1
0 2
END HITS/FILLS STATS. CLEARING MAPS...
SIG: 0 hits: 0 fills: 8 hits/fills: 0
SIG: 4231732 hits: 2031 fills: 2040 hits/fills: 0
FILLS: 2048 HITS: 2031
HITS/FILLS STATS: MAP_SIZE: 1
0 2
END HITS/FILLS STATS. CLEARING MAPS...
SIG: 0 hits: 0 fills: 3 hits/fills: 0
SIG: 4231732 hits: 2043 fills: 2045 hits/fills: 0
FILLS: 2048 HITS: 2043
HITS/FILLS STATS: MAP_SIZE: 1
0 2
END HITS/FILLS STATS. CLEARING MAPS...
SIG: 0 hits: 0 fills: 7 hits/fills: 0
SIG: 4231732 hits: 2028 fills: 2036 hits/fills: 0
SIG: 4289302 hits: 1 fills: 1 hits/fills: 1
SIG: 4290275 hits: 0 fills: 1 hits/fills: 0
SIG: 4290566 hits: 0 fills: 1 hits/fills: 0
SIG: 4293363 hits: 1 fills: 1 hits/fills: 1
SIG: 4298513 hits: 0 fills: 1 hits/fills: 0
FILLS: 2048 HITS: 2030
HITS/FILLS STATS: MAP_SIZE: 2
0 5
1 2
END HITS/FILLS STATS. CLEARING MAPS...
SIG: 0 hits: 0 fills: 4 hits/fills: 0
SIG: 4231732 hits: 2040 fills: 2044 hits/fills: 0
FILLS: 2048 HITS: 2040
HITS/FILLS STATS: MAP_SIZE: 1
0 2
END HITS/FILLS STATS. CLEARING MAPS...
SIG: 0 hits: 0 fills: 6 hits/fills: 0
SIG: 4231732 hits: 2033 fills: 2042 hits/fills: 0
FILLS: 2048 HITS: 2033
HITS/FILLS STATS: MAP_SIZE: 1
0 2
END HITS/FILLS STATS. CLEARING MAPS...
SIG: 0 hits: 0 fills: 3 hits/fills: 0
SIG: 4231732 hits: 2042 fills: 2045 hits/fills: 0
FILLS: 2048 HITS: 2042
HITS/FILLS STATS: MAP_SIZE: 1
0 2
END HITS/FILLS STATS. CLEARING MAPS...
SIG: 0 hits: 0 fills: 3 hits/fills: 0
SIG: 4231732 hits: 2045 fills: 2045 hits/fills: 1
FILLS: 2048 HITS: 2045
HITS/FILLS STATS: MAP_SIZE: 2
0 1
1 1
END HITS/FILLS STATS. CLEARING MAPS...
SIG: 0 hits: 0 fills: 1 hits/fills: 0
SIG: 4231732 hits: 2047 fills: 2047 hits/fills: 1
FILLS: 2048 HITS: 2047
HITS/FILLS STATS: MAP_SIZE: 2
0 1
1 1
END HITS/FILLS STATS. CLEARING MAPS...
SIG: 0 hits: 0 fills: 1 hits/fills: 0
SIG: 4231732 hits: 2046 fills: 2047 hits/fills: 0
FILLS: 2048 HITS: 2046
HITS/FILLS STATS: MAP_SIZE: 1
0 2
END HITS/FILLS STATS. CLEARING MAPS...
SIG: 0 hits: 0 fills: 63 hits/fills: 0
SIG: 4231732 hits: 1921 fills: 1985 hits/fills: 0
FILLS: 2048 HITS: 1921
HITS/FILLS STATS: MAP_SIZE: 1
0 2
END HITS/FILLS STATS. CLEARING MAPS...
SIG: 0 hits: 0 fills: 4 hits/fills: 0
SIG: 4231732 hits: 2041 fills: 2044 hits/fills: 0
FILLS: 2048 HITS: 2041
HITS/FILLS STATS: MAP_SIZE: 1
0 2
END HITS/FILLS STATS. CLEARING MAPS...
SIG: 0 hits: 0 fills: 3 hits/fills: 0
SIG: 4231732 hits: 2037 fills: 2045 hits/fills: 0
FILLS: 2048 HITS: 2037
HITS/FILLS STATS: MAP_SIZE: 1
0 2
END HITS/FILLS STATS. CLEARING MAPS...
SIG: 0 hits: 0 fills: 8 hits/fills: 0
SIG: 4231732 hits: 2037 fills: 2040 hits/fills: 0
FILLS: 2048 HITS: 2037
HITS/FILLS STATS: MAP_SIZE: 1
0 2
END HITS/FILLS STATS. CLEARING MAPS...
SIG: 4231732 hits: 2048 fills: 2048 hits/fills: 1
FILLS: 2048 HITS: 2048
HITS/FILLS STATS: MAP_SIZE: 1
1 1
END HITS/FILLS STATS. CLEARING MAPS...
SIG: 4231732 hits: 2043 fills: 2048 hits/fills: 0
FILLS: 2048 HITS: 2043
HITS/FILLS STATS: MAP_SIZE: 1
0 1
END HITS/FILLS STATS. CLEARING MAPS...
SIG: 0 hits: 0 fills: 44 hits/fills: 0
SIG: 4231732 hits: 1964 fills: 2004 hits/fills: 0
FILLS: 2048 HITS: 1964
HITS/FILLS STATS: MAP_SIZE: 1
0 2
END HITS/FILLS STATS. CLEARING MAPS...
SIG: 0 hits: 0 fills: 8 hits/fills: 0
SIG: 4231732 hits: 2028 fills: 2040 hits/fills: 0
FILLS: 2048 HITS: 2028
HITS/FILLS STATS: MAP_SIZE: 1
0 2
END HITS/FILLS STATS. CLEARING MAPS...
SIG: 0 hits: 0 fills: 5 hits/fills: 0
SIG: 4231732 hits: 2042 fills: 2043 hits/fills: 0
FILLS: 2048 HITS: 2042
HITS/FILLS STATS: MAP_SIZE: 1
0 2
END HITS/FILLS STATS. CLEARING MAPS...
SIG: 0 hits: 0 fills: 2 hits/fills: 0
SIG: 4231732 hits: 2045 fills: 2046 hits/fills: 0
FILLS: 2048 HITS: 2045
HITS/FILLS STATS: MAP_SIZE: 1
0 2
END HITS/FILLS STATS. CLEARING MAPS...
SIG: 0 hits: 0 fills: 8 hits/fills: 0
SIG: 4231732 hits: 2032 fills: 2040 hits/fills: 0
FILLS: 2048 HITS: 2032
HITS/FILLS STATS: MAP_SIZE: 1
0 2
END HITS/FILLS STATS. CLEARING MAPS...
SIG: 0 hits: 0 fills: 6 hits/fills: 0
SIG: 4231732 hits: 2034 fills: 2042 hits/fills: 0
FILLS: 2048 HITS: 2034
HITS/FILLS STATS: MAP_SIZE: 1
0 2
END HITS/FILLS STATS. CLEARING MAPS...
SIG: 0 hits: 0 fills: 7 hits/fills: 0
SIG: 4231732 hits: 2035 fills: 2041 hits/fills: 0
FILLS: 2048 HITS: 2035
HITS/FILLS STATS: MAP_SIZE: 1
0 2
END HITS/FILLS STATS. CLEARING MAPS...
SIG: 0 hits: 0 fills: 3 hits/fills: 0
SIG: 4231732 hits: 2042 fills: 2045 hits/fills: 0
FILLS: 2048 HITS: 2042
HITS/FILLS STATS: MAP_SIZE: 1
0 2
END HITS/FILLS STATS. CLEARING MAPS...
SIG: 0 hits: 0 fills: 7 hits/fills: 0
SIG: 4231732 hits: 2035 fills: 2041 hits/fills: 0
FILLS: 2048 HITS: 2035
HITS/FILLS STATS: MAP_SIZE: 1
0 2
END HITS/FILLS STATS. CLEARING MAPS...
SIG: 0 hits: 0 fills: 5 hits/fills: 0
SIG: 4231732 hits: 2036 fills: 2043 hits/fills: 0
FILLS: 2048 HITS: 2036
HITS/FILLS STATS: MAP_SIZE: 1
0 2
END HITS/FILLS STATS. CLEARING MAPS...
SIG: 0 hits: 0 fills: 6 hits/fills: 0
SIG: 4231732 hits: 2034 fills: 2042 hits/fills: 0
FILLS: 2048 HITS: 2034
HITS/FILLS STATS: MAP_SIZE: 1
0 2
END HITS/FILLS STATS. CLEARING MAPS...
SIG: 0 hits: 0 fills: 10 hits/fills: 0
SIG: 4231732 hits: 2030 fills: 2038 hits/fills: 0
FILLS: 2048 HITS: 2030
HITS/FILLS STATS: MAP_SIZE: 1
0 2
END HITS/FILLS STATS. CLEARING MAPS...
SIG: 0 hits: 0 fills: 5 hits/fills: 0
SIG: 4231732 hits: 2038 fills: 2043 hits/fills: 0
FILLS: 2048 HITS: 2038
HITS/FILLS STATS: MAP_SIZE: 1
0 2
END HITS/FILLS STATS. CLEARING MAPS...
SIG: 0 hits: 0 fills: 3 hits/fills: 0
SIG: 4231732 hits: 2044 fills: 2045 hits/fills: 0
FILLS: 2048 HITS: 2044
HITS/FILLS STATS: MAP_SIZE: 1
0 2
END HITS/FILLS STATS. CLEARING MAPS...
SIG: 0 hits: 0 fills: 5 hits/fills: 0
SIG: 4231732 hits: 2035 fills: 2043 hits/fills: 0
FILLS: 2048 HITS: 2035
HITS/FILLS STATS: MAP_SIZE: 1
0 2
END HITS/FILLS STATS. CLEARING MAPS...
SIG: 0 hits: 0 fills: 8 hits/fills: 0
SIG: 4231732 hits: 2034 fills: 2040 hits/fills: 0
FILLS: 2048 HITS: 2034
HITS/FILLS STATS: MAP_SIZE: 1
0 2
END HITS/FILLS STATS. CLEARING MAPS...
SIG: 0 hits: 0 fills: 8 hits/fills: 0
SIG: 4231732 hits: 2032 fills: 2040 hits/fills: 0
FILLS: 2048 HITS: 2032
HITS/FILLS STATS: MAP_SIZE: 1
0 2
END HITS/FILLS STATS. CLEARING MAPS...
SIG: 0 hits: 0 fills: 4 hits/fills: 0
SIG: 4231732 hits: 2040 fills: 2044 hits/fills: 0
FILLS: 2048 HITS: 2040
HITS/FILLS STATS: MAP_SIZE: 1
0 2
END HITS/FILLS STATS. CLEARING MAPS...
SIG: 0 hits: 0 fills: 4 hits/fills: 0
SIG: 4231732 hits: 2040 fills: 2044 hits/fills: 0
FILLS: 2048 HITS: 2040
HITS/FILLS STATS: MAP_SIZE: 1
0 2
END HITS/FILLS STATS. CLEARING MAPS...
SIG: 0 hits: 0 fills: 3 hits/fills: 0
SIG: 4195088 hits: 0 fills: 1 hits/fills: 0
SIG: 4231732 hits: 1988 fills: 1991 hits/fills: 0
SIG: 4231765 hits: 0 fills: 1 hits/fills: 0
SIG: 4252569 hits: 0 fills: 1 hits/fills: 0
SIG: 4252589 hits: 0 fills: 1 hits/fills: 0
SIG: 4261808 hits: 1 fills: 1 hits/fills: 1
SIG: 4261854 hits: 0 fills: 1 hits/fills: 0
SIG: 4263760 hits: 1 fills: 1 hits/fills: 1
SIG: 4268659 hits: 0 fills: 1 hits/fills: 0
SIG: 4271898 hits: 0 fills: 1 hits/fills: 0
SIG: 4313770 hits: 0 fills: 1 hits/fills: 0
SIG: 4418007 hits: 0 fills: 1 hits/fills: 0
SIG: 4418021 hits: 0 fills: 1 hits/fills: 0
SIG: 4418134 hits: 0 fills: 1 hits/fills: 0
SIG: 4418168 hits: 0 fills: 1 hits/fills: 0
SIG: 4439993 hits: 0 fills: 1 hits/fills: 0
SIG: 4440104 hits: 0 fills: 1 hits/fills: 0
SIG: 4440132 hits: 0 fills: 4 hits/fills: 0
SIG: 4440140 hits: 0 fills: 15 hits/fills: 0
SIG: 4440166 hits: 0 fills: 1 hits/fills: 0
SIG: 4445984 hits: 0 fills: 1 hits/fills: 0
SIG: 4446042 hits: 0 fills: 1 hits/fills: 0
SIG: 4446061 hits: 1 fills: 1 hits/fills: 1
SIG: 4446072 hits: 0 fills: 1 hits/fills: 0
SIG: 4446128 hits: 0 fills: 1 hits/fills: 0
SIG: 4446143 hits: 1 fills: 1 hits/fills: 1
SIG: 4446516 hits: 0 fills: 1 hits/fills: 0
SIG: 4446562 hits: 0 fills: 2 hits/fills: 0
SIG: 4446636 hits: 0 fills: 1 hits/fills: 0
SIG: 4446667 hits: 0 fills: 1 hits/fills: 0
SIG: 4447017 hits: 0 fills: 1 hits/fills: 0
SIG: 4447196 hits: 0 fills: 1 hits/fills: 0
SIG: 4447217 hits: 0 fills: 1 hits/fills: 0
SIG: 4447235 hits: 0 fills: 1 hits/fills: 0
SIG: 4447293 hits: 0 fills: 1 hits/fills: 0
SIG: 4537157 hits: 0 fills: 1 hits/fills: 0
SIG: 4678378 hits: 0 fills: 1 hits/fills: 0
FILLS: 2048 HITS: 1992
HITS/FILLS STATS: MAP_SIZE: 2
0 34
1 4
END HITS/FILLS STATS. CLEARING MAPS...
SIG: 0 hits: 0 fills: 11 hits/fills: 0
SIG: 4231732 hits: 2023 fills: 2037 hits/fills: 0
FILLS: 2048 HITS: 2023
HITS/FILLS STATS: MAP_SIZE: 1
0 2
END HITS/FILLS STATS. CLEARING MAPS...
SIG: 0 hits: 0 fills: 3 hits/fills: 0
SIG: 4231732 hits: 2044 fills: 2045 hits/fills: 0
FILLS: 2048 HITS: 2044
HITS/FILLS STATS: MAP_SIZE: 1
0 2
END HITS/FILLS STATS. CLEARING MAPS...
SIG: 0 hits: 0 fills: 3 hits/fills: 0
SIG: 4231732 hits: 2043 fills: 2045 hits/fills: 0
FILLS: 2048 HITS: 2043
HITS/FILLS STATS: MAP_SIZE: 1
0 2
END HITS/FILLS STATS. CLEARING MAPS...
SIG: 0 hits: 0 fills: 6 hits/fills: 0
SIG: 4231732 hits: 2036 fills: 2042 hits/fills: 0
FILLS: 2048 HITS: 2036
HITS/FILLS STATS: MAP_SIZE: 1
0 2
END HITS/FILLS STATS. CLEARING MAPS...
SIG: 0 hits: 0 fills: 4 hits/fills: 0
SIG: 4231732 hits: 2040 fills: 2044 hits/fills: 0
FILLS: 2048 HITS: 2040
HITS/FILLS STATS: MAP_SIZE: 1
0 2
END HITS/FILLS STATS. CLEARING MAPS...
SIG: 0 hits: 0 fills: 5 hits/fills: 0
SIG: 4231732 hits: 2039 fills: 2043 hits/fills: 0
FILLS: 2048 HITS: 2039
HITS/FILLS STATS: MAP_SIZE: 1
0 2
END HITS/FILLS STATS. CLEARING MAPS...
SIG: 0 hits: 0 fills: 1 hits/fills: 0
SIG: 4231732 hits: 2042 fills: 2047 hits/fills: 0
FILLS: 2048 HITS: 2042
HITS/FILLS STATS: MAP_SIZE: 1
0 2
END HITS/FILLS STATS. CLEARING MAPS...
SIG: 0 hits: 0 fills: 8 hits/fills: 0
SIG: 4231732 hits: 2035 fills: 2040 hits/fills: 0
FILLS: 2048 HITS: 2035
HITS/FILLS STATS: MAP_SIZE: 1
0 2
END HITS/FILLS STATS. CLEARING MAPS...
SIG: 0 hits: 0 fills: 7 hits/fills: 0
SIG: 4231732 hits: 2031 fills: 2041 hits/fills: 0
FILLS: 2048 HITS: 2031
HITS/FILLS STATS: MAP_SIZE: 1
0 2
END HITS/FILLS STATS. CLEARING MAPS...
SIG: 0 hits: 0 fills: 7 hits/fills: 0
SIG: 4231732 hits: 2034 fills: 2041 hits/fills: 0
FILLS: 2048 HITS: 2034
HITS/FILLS STATS: MAP_SIZE: 1
0 2
END HITS/FILLS STATS. CLEARING MAPS...
SIG: 0 hits: 0 fills: 3 hits/fills: 0
SIG: 4231732 hits: 2045 fills: 2045 hits/fills: 1
FILLS: 2048 HITS: 2045
HITS/FILLS STATS: MAP_SIZE: 2
0 1
1 1
END HITS/FILLS STATS. CLEARING MAPS...
SIG: 0 hits: 0 fills: 1 hits/fills: 0
SIG: 4231732 hits: 2046 fills: 2047 hits/fills: 0
FILLS: 2048 HITS: 2046
HITS/FILLS STATS: MAP_SIZE: 1
0 2
END HITS/FILLS STATS. CLEARING MAPS...
SIG: 0 hits: 0 fills: 77 hits/fills: 0
SIG: 4231732 hits: 1895 fills: 1971 hits/fills: 0
FILLS: 2048 HITS: 1895
HITS/FILLS STATS: MAP_SIZE: 1
0 2
END HITS/FILLS STATS. CLEARING MAPS...
SIG: 0 hits: 0 fills: 6 hits/fills: 0
SIG: 4231732 hits: 2034 fills: 2042 hits/fills: 0
FILLS: 2048 HITS: 2034
HITS/FILLS STATS: MAP_SIZE: 1
0 2
END HITS/FILLS STATS. CLEARING MAPS...
SIG: 0 hits: 0 fills: 6 hits/fills: 0
SIG: 4231732 hits: 2034 fills: 2042 hits/fills: 0
FILLS: 2048 HITS: 2034
HITS/FILLS STATS: MAP_SIZE: 1
0 2
END HITS/FILLS STATS. CLEARING MAPS...
SIG: 0 hits: 0 fills: 5 hits/fills: 0
SIG: 4231732 hits: 2041 fills: 2043 hits/fills: 0
FILLS: 2048 HITS: 2041
HITS/FILLS STATS: MAP_SIZE: 1
0 2
END HITS/FILLS STATS. CLEARING MAPS...
SIG: 0 hits: 0 fills: 5 hits/fills: 0
SIG: 4231732 hits: 2039 fills: 2043 hits/fills: 0
FILLS: 2048 HITS: 2039
HITS/FILLS STATS: MAP_SIZE: 1
0 2
END HITS/FILLS STATS. CLEARING MAPS...
SIG: 0 hits: 0 fills: 10 hits/fills: 0
SIG: 4231732 hits: 2026 fills: 2038 hits/fills: 0
FILLS: 2048 HITS: 2026
HITS/FILLS STATS: MAP_SIZE: 1
0 2
END HITS/FILLS STATS. CLEARING MAPS...
SIG: 0 hits: 0 fills: 4 hits/fills: 0
SIG: 4231732 hits: 2041 fills: 2044 hits/fills: 0
FILLS: 2048 HITS: 2041
HITS/FILLS STATS: MAP_SIZE: 1
0 2
END HITS/FILLS STATS. CLEARING MAPS...
Heartbeat CPU 0 instructions: 2000003 cycles: 17117521 heartbeat IPC: 0.111877 cumulative IPC: 0.111296 (Simulation time: 0 hr 0 min 32 sec) 
SIG: 0 hits: 0 fills: 2 hits/fills: 0
SIG: 4231732 hits: 2044 fills: 2046 hits/fills: 0
FILLS: 2048 HITS: 2044
HITS/FILLS STATS: MAP_SIZE: 1
0 2
END HITS/FILLS STATS. CLEARING MAPS...
SIG: 0 hits: 0 fills: 4 hits/fills: 0
SIG: 4231732 hits: 2040 fills: 2044 hits/fills: 0
FILLS: 2048 HITS: 2040
HITS/FILLS STATS: MAP_SIZE: 1
0 2
END HITS/FILLS STATS. CLEARING MAPS...
SIG: 0 hits: 0 fills: 8 hits/fills: 0
SIG: 4231732 hits: 2032 fills: 2040 hits/fills: 0
FILLS: 2048 HITS: 2032
HITS/FILLS STATS: MAP_SIZE: 1
0 2
END HITS/FILLS STATS. CLEARING MAPS...
SIG: 0 hits: 0 fills: 7 hits/fills: 0
SIG: 4231706 hits: 0 fills: 1 hits/fills: 0
SIG: 4231732 hits: 2021 fills: 2031 hits/fills: 0
SIG: 4288866 hits: 0 fills: 1 hits/fills: 0
SIG: 4289302 hits: 0 fills: 1 hits/fills: 0
SIG: 4290275 hits: 0 fills: 1 hits/fills: 0
SIG: 4290279 hits: 0 fills: 1 hits/fills: 0
SIG: 4290566 hits: 0 fills: 1 hits/fills: 0
SIG: 4293332 hits: 0 fills: 1 hits/fills: 0
SIG: 4293363 hits: 1 fills: 1 hits/fills: 1
SIG: 4298493 hits: 0 fills: 1 hits/fills: 0
SIG: 4298513 hits: 0 fills: 1 hits/fills: 0
FILLS: 2048 HITS: 2022
HITS/FILLS STATS: MAP_SIZE: 2
0 11
1 1
END HITS/FILLS STATS. CLEARING MAPS...
SIG: 0 hits: 0 fills: 6 hits/fills: 0
SIG: 4231732 hits: 2040 fills: 2042 hits/fills: 0
FILLS: 2048 HITS: 2040
HITS/FILLS STATS: MAP_SIZE: 1
0 2
END HITS/FILLS STATS. CLEARING MAPS...
SIG: 0 hits: 0 fills: 5 hits/fills: 0
SIG: 4231732 hits: 2032 fills: 2043 hits/fills: 0
FILLS: 2048 HITS: 2032
HITS/FILLS STATS: MAP_SIZE: 1
0 2
END HITS/FILLS STATS. CLEARING MAPS...
SIG: 0 hits: 0 fills: 4 hits/fills: 0
SIG: 4231732 hits: 2044 fills: 2044 hits/fills: 1
FILLS: 2048 HITS: 2044
HITS/FILLS STATS: MAP_SIZE: 2
0 1
1 1
END HITS/FILLS STATS. CLEARING MAPS...
SIG: 0 hits: 0 fills: 1 hits/fills: 0
SIG: 4231732 hits: 2047 fills: 2047 hits/fills: 1
FILLS: 2048 HITS: 2047
HITS/FILLS STATS: MAP_SIZE: 2
0 1
1 1
END HITS/FILLS STATS. CLEARING MAPS...
SIG: 0 hits: 0 fills: 1 hits/fills: 0
SIG: 4231732 hits: 2047 fills: 2047 hits/fills: 1
FILLS: 2048 HITS: 2047
HITS/FILLS STATS: MAP_SIZE: 2
0 1
1 1
END HITS/FILLS STATS. CLEARING MAPS...
SIG: 0 hits: 0 fills: 1 hits/fills: 0
SIG: 4231732 hits: 2046 fills: 2047 hits/fills: 0
FILLS: 2048 HITS: 2046
HITS/FILLS STATS: MAP_SIZE: 1
0 2
END HITS/FILLS STATS. CLEARING MAPS...
SIG: 0 hits: 0 fills: 52 hits/fills: 0
SIG: 4231732 hits: 1944 fills: 1996 hits/fills: 0
FILLS: 2048 HITS: 1944
HITS/FILLS STATS: MAP_SIZE: 1
0 2
END HITS/FILLS STATS. CLEARING MAPS...
SIG: 0 hits: 0 fills: 6 hits/fills: 0
SIG: 4231732 hits: 2035 fills: 2042 hits/fills: 0
FILLS: 2048 HITS: 2035
HITS/FILLS STATS: MAP_SIZE: 1
0 2
END HITS/FILLS STATS. CLEARING MAPS...
SIG: 0 hits: 0 fills: 3 hits/fills: 0
SIG: 4231732 hits: 2042 fills: 2045 hits/fills: 0
FILLS: 2048 HITS: 2042
HITS/FILLS STATS: MAP_SIZE: 1
0 2
END HITS/FILLS STATS. CLEARING MAPS...
SIG: 0 hits: 0 fills: 4 hits/fills: 0
SIG: 4231732 hits: 2041 fills: 2044 hits/fills: 0
FILLS: 2048 HITS: 2041
HITS/FILLS STATS: MAP_SIZE: 1
0 2
END HITS/FILLS STATS. CLEARING MAPS...
SIG: 0 hits: 0 fills: 8 hits/fills: 0
SIG: 4231732 hits: 2029 fills: 2040 hits/fills: 0
FILLS: 2048 HITS: 2029
HITS/FILLS STATS: MAP_SIZE: 1
0 2
END HITS/FILLS STATS. CLEARING MAPS...
SIG: 0 hits: 0 fills: 3 hits/fills: 0
SIG: 4231732 hits: 2045 fills: 2045 hits/fills: 1
FILLS: 2048 HITS: 2045
HITS/FILLS STATS: MAP_SIZE: 2
0 1
1 1
END HITS/FILLS STATS. CLEARING MAPS...
SIG: 0 hits: 0 fills: 2 hits/fills: 0
SIG: 4231732 hits: 2042 fills: 2046 hits/fills: 0
FILLS: 2048 HITS: 2042
HITS/FILLS STATS: MAP_SIZE: 1
0 2
END HITS/FILLS STATS. CLEARING MAPS...
SIG: 0 hits: 0 fills: 32 hits/fills: 0
SIG: 4231732 hits: 1986 fills: 2016 hits/fills: 0
FILLS: 2048 HITS: 1986
HITS/FILLS STATS: MAP_SIZE: 1
0 2
END HITS/FILLS STATS. CLEARING MAPS...
SIG: 0 hits: 0 fills: 7 hits/fills: 0
SIG: 4231732 hits: 2033 fills: 2041 hits/fills: 0
FILLS: 2048 HITS: 2033
HITS/FILLS STATS: MAP_SIZE: 1
0 2
END HITS/FILLS STATS. CLEARING MAPS...
SIG: 0 hits: 0 fills: 8 hits/fills: 0
SIG: 4231732 hits: 2032 fills: 2040 hits/fills: 0
FILLS: 2048 HITS: 2032
HITS/FILLS STATS: MAP_SIZE: 1
0 2
END HITS/FILLS STATS. CLEARING MAPS...
SIG: 0 hits: 0 fills: 3 hits/fills: 0
SIG: 4231732 hits: 2041 fills: 2045 hits/fills: 0
FILLS: 2048 HITS: 2041
HITS/FILLS STATS: MAP_SIZE: 1
0 2
END HITS/FILLS STATS. CLEARING MAPS...
SIG: 0 hits: 0 fills: 2 hits/fills: 0
SIG: 4231732 hits: 2046 fills: 2046 hits/fills: 1
FILLS: 2048 HITS: 2046
HITS/FILLS STATS: MAP_SIZE: 2
0 1
1 1
END HITS/FILLS STATS. CLEARING MAPS...
SIG: 0 hits: 0 fills: 1 hits/fills: 0
SIG: 4231732 hits: 2043 fills: 2047 hits/fills: 0
FILLS: 2048 HITS: 2043
HITS/FILLS STATS: MAP_SIZE: 1
0 2
END HITS/FILLS STATS. CLEARING MAPS...
SIG: 0 hits: 0 fills: 43 hits/fills: 0
SIG: 4231732 hits: 1963 fills: 2005 hits/fills: 0
FILLS: 2048 HITS: 1963
HITS/FILLS STATS: MAP_SIZE: 1
0 2
END HITS/FILLS STATS. CLEARING MAPS...
SIG: 0 hits: 0 fills: 7 hits/fills: 0
SIG: 4231732 hits: 2033 fills: 2041 hits/fills: 0
FILLS: 2048 HITS: 2033
HITS/FILLS STATS: MAP_SIZE: 1
0 2
END HITS/FILLS STATS. CLEARING MAPS...
SIG: 0 hits: 0 fills: 8 hits/fills: 0
SIG: 4231732 hits: 2034 fills: 2040 hits/fills: 0
FILLS: 2048 HITS: 2034
HITS/FILLS STATS: MAP_SIZE: 1
0 2
END HITS/FILLS STATS. CLEARING MAPS...
SIG: 0 hits: 0 fills: 5 hits/fills: 0
SIG: 4231732 hits: 2039 fills: 2043 hits/fills: 0
FILLS: 2048 HITS: 2039
HITS/FILLS STATS: MAP_SIZE: 1
0 2
END HITS/FILLS STATS. CLEARING MAPS...
SIG: 0 hits: 0 fills: 4 hits/fills: 0
SIG: 4231732 hits: 2040 fills: 2044 hits/fills: 0
FILLS: 2048 HITS: 2040
HITS/FILLS STATS: MAP_SIZE: 1
0 2
END HITS/FILLS STATS. CLEARING MAPS...
SIG: 0 hits: 0 fills: 5 hits/fills: 0
SIG: 4231732 hits: 2037 fills: 2043 hits/fills: 0
FILLS: 2048 HITS: 2037
HITS/FILLS STATS: MAP_SIZE: 1
0 2
END HITS/FILLS STATS. CLEARING MAPS...
SIG: 0 hits: 0 fills: 4 hits/fills: 0
SIG: 4231732 hits: 2040 fills: 2044 hits/fills: 0
FILLS: 2048 HITS: 2040
HITS/FILLS STATS: MAP_SIZE: 1
0 2
END HITS/FILLS STATS. CLEARING MAPS...
SIG: 0 hits: 0 fills: 6 hits/fills: 0
SIG: 4231732 hits: 2036 fills: 2042 hits/fills: 0
FILLS: 2048 HITS: 2036
HITS/FILLS STATS: MAP_SIZE: 1
0 2
END HITS/FILLS STATS. CLEARING MAPS...
SIG: 0 hits: 0 fills: 4 hits/fills: 0
SIG: 4231732 hits: 2040 fills: 2044 hits/fills: 0
FILLS: 2048 HITS: 2040
HITS/FILLS STATS: MAP_SIZE: 1
0 2
END HITS/FILLS STATS. CLEARING MAPS...
SIG: 0 hits: 0 fills: 5 hits/fills: 0
SIG: 4231732 hits: 2037 fills: 2043 hits/fills: 0
FILLS: 2048 HITS: 2037
HITS/FILLS STATS: MAP_SIZE: 1
0 2
END HITS/FILLS STATS. CLEARING MAPS...
SIG: 0 hits: 0 fills: 2 hits/fills: 0
SIG: 4231732 hits: 2042 fills: 2046 hits/fills: 0
FILLS: 2048 HITS: 2042
HITS/FILLS STATS: MAP_SIZE: 1
0 2
END HITS/FILLS STATS. CLEARING MAPS...
SIG: 0 hits: 0 fills: 8 hits/fills: 0
SIG: 4231732 hits: 2034 fills: 2040 hits/fills: 0
FILLS: 2048 HITS: 2034
HITS/FILLS STATS: MAP_SIZE: 1
0 2
END HITS/FILLS STATS. CLEARING MAPS...
SIG: 0 hits: 0 fills: 2 hits/fills: 0
SIG: 4231732 hits: 2043 fills: 2042 hits/fills: 1
SIG: 4290275 hits: 0 fills: 1 hits/fills: 0
SIG: 4290566 hits: 0 fills: 1 hits/fills: 0
SIG: 4293363 hits: 0 fills: 1 hits/fills: 0
SIG: 4298513 hits: 0 fills: 1 hits/fills: 0
FILLS: 2048 HITS: 2043
HITS/FILLS STATS: MAP_SIZE: 2
0 5
1 1
END HITS/FILLS STATS. CLEARING MAPS...
SIG: 4231732 hits: 2046 fills: 2048 hits/fills: 0
SIG: 4293363 hits: 1 fills: 0 hits/fills: 2
FILLS: 2048 HITS: 2047
HITS/FILLS STATS: MAP_SIZE: 2
0 1
2 1
END HITS/FILLS STATS. CLEARING MAPS...
SIG: 0 hits: 0 fills: 38 hits/fills: 0
SIG: 4231732 hits: 1973 fills: 2010 hits/fills: 0
FILLS: 2048 HITS: 1973
HITS/FILLS STATS: MAP_SIZE: 1
0 2
END HITS/FILLS STATS. CLEARING MAPS...
SIG: 0 hits: 0 fills: 8 hits/fills: 0
SIG: 4231732 hits: 2031 fills: 2040 hits/fills: 0
FILLS: 2048 HITS: 2031
HITS/FILLS STATS: MAP_SIZE: 1
0 2
END HITS/FILLS STATS. CLEARING MAPS...
SIG: 0 hits: 0 fills: 8 hits/fills: 0
SIG: 4231732 hits: 2032 fills: 2040 hits/fills: 0
FILLS: 2048 HITS: 2032
HITS/FILLS STATS: MAP_SIZE: 1
0 2
END HITS/FILLS STATS. CLEARING MAPS...
SIG: 0 hits: 0 fills: 9 hits/fills: 0
SIG: 4231732 hits: 2031 fills: 2039 hits/fills: 0
FILLS: 2048 HITS: 2031
HITS/FILLS STATS: MAP_SIZE: 1
0 2
END HITS/FILLS STATS. CLEARING MAPS...
SIG: 0 hits: 0 fills: 4 hits/fills: 0
SIG: 4231732 hits: 2039 fills: 2044 hits/fills: 0
FILLS: 2048 HITS: 2039
HITS/FILLS STATS: MAP_SIZE: 1
0 2
END HITS/FILLS STATS. CLEARING MAPS...
SIG: 0 hits: 0 fills: 6 hits/fills: 0
SIG: 4231732 hits: 2036 fills: 2042 hits/fills: 0
FILLS: 2048 HITS: 2036
HITS/FILLS STATS: MAP_SIZE: 1
0 2
END HITS/FILLS STATS. CLEARING MAPS...
SIG: 0 hits: 0 fills: 4 hits/fills: 0
SIG: 4231732 hits: 2041 fills: 2044 hits/fills: 0
FILLS: 2048 HITS: 2041
HITS/FILLS STATS: MAP_SIZE: 1
0 2
END HITS/FILLS STATS. CLEARING MAPS...
SIG: 0 hits: 0 fills: 5 hits/fills: 0
SIG: 4231732 hits: 2037 fills: 2043 hits/fills: 0
FILLS: 2048 HITS: 2037
HITS/FILLS STATS: MAP_SIZE: 1
0 2
END HITS/FILLS STATS. CLEARING MAPS...
SIG: 0 hits: 0 fills: 2 hits/fills: 0
SIG: 4231732 hits: 2044 fills: 2046 hits/fills: 0
FILLS: 2048 HITS: 2044
HITS/FILLS STATS: MAP_SIZE: 1
0 2
END HITS/FILLS STATS. CLEARING MAPS...
SIG: 0 hits: 0 fills: 11 hits/fills: 0
SIG: 4231732 hits: 2023 fills: 2037 hits/fills: 0
FILLS: 2048 HITS: 2023
HITS/FILLS STATS: MAP_SIZE: 1
0 2
END HITS/FILLS STATS. CLEARING MAPS...
SIG: 0 hits: 0 fills: 2 hits/fills: 0
SIG: 4231732 hits: 2048 fills: 2046 hits/fills: 1
FILLS: 2048 HITS: 2048
HITS/FILLS STATS: MAP_SIZE: 2
0 1
1 1
END HITS/FILLS STATS. CLEARING MAPS...
SIG: 0 hits: 0 fills: 1 hits/fills: 0
SIG: 4231732 hits: 2045 fills: 2047 hits/fills: 0
FILLS: 2048 HITS: 2045
HITS/FILLS STATS: MAP_SIZE: 1
0 2
END HITS/FILLS STATS. CLEARING MAPS...
SIG: 0 hits: 0 fills: 38 hits/fills: 0
SIG: 4231732 hits: 1972 fills: 2010 hits/fills: 0
FILLS: 2048 HITS: 1972
HITS/FILLS STATS: MAP_SIZE: 1
0 2
END HITS/FILLS STATS. CLEARING MAPS...
SIG: 0 hits: 0 fills: 5 hits/fills: 0
SIG: 4231732 hits: 2038 fills: 2043 hits/fills: 0
FILLS: 2048 HITS: 2038
HITS/FILLS STATS: MAP_SIZE: 1
0 2
END HITS/FILLS STATS. CLEARING MAPS...
SIG: 0 hits: 0 fills: 5 hits/fills: 0
SIG: 4231732 hits: 2034 fills: 2043 hits/fills: 0
FILLS: 2048 HITS: 2034
HITS/FILLS STATS: MAP_SIZE: 1
0 2
END HITS/FILLS STATS. CLEARING MAPS...
SIG: 0 hits: 0 fills: 7 hits/fills: 0
SIG: 4231732 hits: 2035 fills: 2041 hits/fills: 0
FILLS: 2048 HITS: 2035
HITS/FILLS STATS: MAP_SIZE: 1
0 2
END HITS/FILLS STATS. CLEARING MAPS...
SIG: 0 hits: 0 fills: 10 hits/fills: 0
SIG: 4231732 hits: 2030 fills: 2038 hits/fills: 0
FILLS: 2048 HITS: 2030
HITS/FILLS STATS: MAP_SIZE: 1
0 2
END HITS/FILLS STATS. CLEARING MAPS...
SIG: 0 hits: 0 fills: 5 hits/fills: 0
SIG: 4231732 hits: 2039 fills: 2043 hits/fills: 0
FILLS: 2048 HITS: 2039
HITS/FILLS STATS: MAP_SIZE: 1
0 2
END HITS/FILLS STATS. CLEARING MAPS...
SIG: 0 hits: 0 fills: 5 hits/fills: 0
SIG: 4231732 hits: 2038 fills: 2043 hits/fills: 0
FILLS: 2048 HITS: 2038
HITS/FILLS STATS: MAP_SIZE: 1
0 2
END HITS/FILLS STATS. CLEARING MAPS...
SIG: 0 hits: 0 fills: 5 hits/fills: 0
SIG: 4231732 hits: 2038 fills: 2043 hits/fills: 0
FILLS: 2048 HITS: 2038
HITS/FILLS STATS: MAP_SIZE: 1
0 2
END HITS/FILLS STATS. CLEARING MAPS...
SIG: 0 hits: 0 fills: 5 hits/fills: 0
SIG: 4231732 hits: 2039 fills: 2043 hits/fills: 0
FILLS: 2048 HITS: 2039
HITS/FILLS STATS: MAP_SIZE: 1
0 2
END HITS/FILLS STATS. CLEARING MAPS...
SIG: 0 hits: 0 fills: 3 hits/fills: 0
SIG: 4231732 hits: 2041 fills: 2045 hits/fills: 0
FILLS: 2048 HITS: 2041
HITS/FILLS STATS: MAP_SIZE: 1
0 2
END HITS/FILLS STATS. CLEARING MAPS...
SIG: 0 hits: 0 fills: 6 hits/fills: 0
SIG: 4231732 hits: 2036 fills: 2042 hits/fills: 0
FILLS: 2048 HITS: 2036
HITS/FILLS STATS: MAP_SIZE: 1
0 2
END HITS/FILLS STATS. CLEARING MAPS...
SIG: 0 hits: 0 fills: 1 hits/fills: 0
SIG: 4231732 hits: 2046 fills: 2047 hits/fills: 0
FILLS: 2048 HITS: 2046
HITS/FILLS STATS: MAP_SIZE: 1
0 2
END HITS/FILLS STATS. CLEARING MAPS...
SIG: 0 hits: 0 fills: 4 hits/fills: 0
SIG: 4231732 hits: 2039 fills: 2044 hits/fills: 0
FILLS: 2048 HITS: 2039
HITS/FILLS STATS: MAP_SIZE: 1
0 2
END HITS/FILLS STATS. CLEARING MAPS...
SIG: 0 hits: 0 fills: 6 hits/fills: 0
SIG: 4231732 hits: 2038 fills: 2042 hits/fills: 0
FILLS: 2048 HITS: 2038
HITS/FILLS STATS: MAP_SIZE: 1
0 2
END HITS/FILLS STATS. CLEARING MAPS...
SIG: 0 hits: 0 fills: 2 hits/fills: 0
SIG: 4231732 hits: 2040 fills: 2046 hits/fills: 0
FILLS: 2048 HITS: 2040
HITS/FILLS STATS: MAP_SIZE: 1
0 2
END HITS/FILLS STATS. CLEARING MAPS...
SIG: 0 hits: 0 fills: 4 hits/fills: 0
SIG: 4231732 hits: 2043 fills: 2044 hits/fills: 0
FILLS: 2048 HITS: 2043
HITS/FILLS STATS: MAP_SIZE: 1
0 2
END HITS/FILLS STATS. CLEARING MAPS...
SIG: 0 hits: 0 fills: 6 hits/fills: 0
SIG: 4231732 hits: 2032 fills: 2042 hits/fills: 0
FILLS: 2048 HITS: 2032
HITS/FILLS STATS: MAP_SIZE: 1
0 2
END HITS/FILLS STATS. CLEARING MAPS...
SIG: 0 hits: 0 fills: 7 hits/fills: 0
SIG: 4231732 hits: 2038 fills: 2041 hits/fills: 0
FILLS: 2048 HITS: 2038
HITS/FILLS STATS: MAP_SIZE: 1
0 2
END HITS/FILLS STATS. CLEARING MAPS...
SIG: 0 hits: 0 fills: 8 hits/fills: 0
SIG: 4231732 hits: 2032 fills: 2040 hits/fills: 0
FILLS: 2048 HITS: 2032
HITS/FILLS STATS: MAP_SIZE: 1
0 2
END HITS/FILLS STATS. CLEARING MAPS...
SIG: 0 hits: 0 fills: 1 hits/fills: 0
SIG: 4195088 hits: 0 fills: 1 hits/fills: 0
SIG: 4231732 hits: 1994 fills: 1995 hits/fills: 0
SIG: 4231765 hits: 0 fills: 1 hits/fills: 0
SIG: 4252569 hits: 0 fills: 1 hits/fills: 0
SIG: 4252589 hits: 0 fills: 1 hits/fills: 0
SIG: 4261854 hits: 0 fills: 1 hits/fills: 0
SIG: 4263760 hits: 1 fills: 1 hits/fills: 1
SIG: 4268659 hits: 0 fills: 1 hits/fills: 0
SIG: 4271898 hits: 0 fills: 1 hits/fills: 0
SIG: 4313770 hits: 0 fills: 1 hits/fills: 0
SIG: 4418007 hits: 0 fills: 1 hits/fills: 0
SIG: 4418021 hits: 1 fills: 1 hits/fills: 1
SIG: 4418134 hits: 0 fills: 1 hits/fills: 0
SIG: 4418168 hits: 0 fills: 1 hits/fills: 0
SIG: 4439993 hits: 0 fills: 1 hits/fills: 0
SIG: 4440104 hits: 0 fills: 1 hits/fills: 0
SIG: 4440132 hits: 0 fills: 4 hits/fills: 0
SIG: 4440140 hits: 0 fills: 15 hits/fills: 0
SIG: 4440166 hits: 0 fills: 1 hits/fills: 0
SIG: 4445984 hits: 0 fills: 1 hits/fills: 0
SIG: 4446042 hits: 0 fills: 1 hits/fills: 0
SIG: 4446061 hits: 0 fills: 1 hits/fills: 0
SIG: 4446072 hits: 0 fills: 1 hits/fills: 0
SIG: 4446128 hits: 0 fills: 1 hits/fills: 0
SIG: 4446143 hits: 0 fills: 1 hits/fills: 0
SIG: 4446516 hits: 0 fills: 1 hits/fills: 0
SIG: 4446562 hits: 0 fills: 2 hits/fills: 0
SIG: 4446636 hits: 1 fills: 1 hits/fills: 1
SIG: 4446667 hits: 0 fills: 1 hits/fills: 0
SIG: 4447017 hits: 0 fills: 1 hits/fills: 0
SIG: 4447196 hits: 0 fills: 1 hits/fills: 0
SIG: 4447217 hits: 0 fills: 1 hits/fills: 0
SIG: 4447235 hits: 0 fills: 1 hits/fills: 0
SIG: 4447293 hits: 0 fills: 1 hits/fills: 0
SIG: 4678378 hits: 0 fills: 1 hits/fills: 0
FILLS: 2048 HITS: 1997
HITS/FILLS STATS: MAP_SIZE: 2
0 33
1 3
END HITS/FILLS STATS. CLEARING MAPS...
SIG: 0 hits: 0 fills: 1 hits/fills: 0
SIG: 4231732 hits: 2046 fills: 2047 hits/fills: 0
FILLS: 2048 HITS: 2046
HITS/FILLS STATS: MAP_SIZE: 1
0 2
END HITS/FILLS STATS. CLEARING MAPS...
SIG: 0 hits: 0 fills: 6 hits/fills: 0
SIG: 4231732 hits: 2037 fills: 2042 hits/fills: 0
FILLS: 2048 HITS: 2037
HITS/FILLS STATS: MAP_SIZE: 1
0 2
END HITS/FILLS STATS. CLEARING MAPS...
SIG: 0 hits: 0 fills: 6 hits/fills: 0
SIG: 4231732 hits: 2036 fills: 2042 hits/fills: 0
FILLS: 2048 HITS: 2036
HITS/FILLS STATS: MAP_SIZE: 1
0 2
END HITS/FILLS STATS. CLEARING MAPS...
SIG: 0 hits: 0 fills: 7 hits/fills: 0
SIG: 4231732 hits: 2033 fills: 2041 hits/fills: 0
FILLS: 2048 HITS: 2033
HITS/FILLS STATS: MAP_SIZE: 1
0 2
END HITS/FILLS STATS. CLEARING MAPS...
SIG: 0 hits: 0 fills: 9 hits/fills: 0
SIG: 4231732 hits: 2030 fills: 2039 hits/fills: 0
FILLS: 2048 HITS: 2030
HITS/FILLS STATS: MAP_SIZE: 1
0 2
END HITS/FILLS STATS. CLEARING MAPS...
SIG: 0 hits: 0 fills: 11 hits/fills: 0
SIG: 4231732 hits: 2026 fills: 2037 hits/fills: 0
FILLS: 2048 HITS: 2026
HITS/FILLS STATS: MAP_SIZE: 1
0 2
END HITS/FILLS STATS. CLEARING MAPS...
SIG: 0 hits: 0 fills: 5 hits/fills: 0
SIG: 4231732 hits: 2039 fills: 2043 hits/fills: 0
FILLS: 2048 HITS: 2039
HITS/FILLS STATS: MAP_SIZE: 1
0 2
END HITS/FILLS STATS. CLEARING MAPS...
SIG: 0 hits: 0 fills: 4 hits/fills: 0
SIG: 4231732 hits: 2038 fills: 2044 hits/fills: 0
FILLS: 2048 HITS: 2038
HITS/FILLS STATS: MAP_SIZE: 1
0 2
END HITS/FILLS STATS. CLEARING MAPS...
SIG: 0 hits: 0 fills: 4 hits/fills: 0
SIG: 4231732 hits: 2041 fills: 2044 hits/fills: 0
FILLS: 2048 HITS: 2041
HITS/FILLS STATS: MAP_SIZE: 1
0 2
END HITS/FILLS STATS. CLEARING MAPS...
SIG: 0 hits: 0 fills: 8 hits/fills: 0
SIG: 4231732 hits: 2033 fills: 2040 hits/fills: 0
FILLS: 2048 HITS: 2033
HITS/FILLS STATS: MAP_SIZE: 1
0 2
END HITS/FILLS STATS. CLEARING MAPS...
SIG: 0 hits: 0 fills: 2 hits/fills: 0
SIG: 4231732 hits: 2044 fills: 2046 hits/fills: 0
FILLS: 2048 HITS: 2044
HITS/FILLS STATS: MAP_SIZE: 1
0 2
END HITS/FILLS STATS. CLEARING MAPS...
SIG: 0 hits: 0 fills: 8 hits/fills: 0
SIG: 4231732 hits: 2032 fills: 2040 hits/fills: 0
FILLS: 2048 HITS: 2032
HITS/FILLS STATS: MAP_SIZE: 1
0 2
END HITS/FILLS STATS. CLEARING MAPS...
SIG: 0 hits: 0 fills: 1 hits/fills: 0
SIG: 4231732 hits: 2045 fills: 2047 hits/fills: 0
FILLS: 2048 HITS: 2045
HITS/FILLS STATS: MAP_SIZE: 1
0 2
END HITS/FILLS STATS. CLEARING MAPS...
SIG: 0 hits: 0 fills: 6 hits/fills: 0
SIG: 4231732 hits: 2032 fills: 2042 hits/fills: 0
FILLS: 2048 HITS: 2032
HITS/FILLS STATS: MAP_SIZE: 1
0 2
END HITS/FILLS STATS. CLEARING MAPS...
SIG: 0 hits: 0 fills: 7 hits/fills: 0
SIG: 4231732 hits: 2038 fills: 2041 hits/fills: 0
FILLS: 2048 HITS: 2038
HITS/FILLS STATS: MAP_SIZE: 1
0 2
END HITS/FILLS STATS. CLEARING MAPS...
SIG: 0 hits: 0 fills: 6 hits/fills: 0
SIG: 4231732 hits: 2037 fills: 2042 hits/fills: 0
FILLS: 2048 HITS: 2037
HITS/FILLS STATS: MAP_SIZE: 1
0 2
END HITS/FILLS STATS. CLEARING MAPS...
SIG: 0 hits: 0 fills: 5 hits/fills: 0
SIG: 4231732 hits: 2037 fills: 2043 hits/fills: 0
FILLS: 2048 HITS: 2037
HITS/FILLS STATS: MAP_SIZE: 1
0 2
END HITS/FILLS STATS. CLEARING MAPS...
SIG: 0 hits: 0 fills: 7 hits/fills: 0
SIG: 4231732 hits: 2035 fills: 2041 hits/fills: 0
FILLS: 2048 HITS: 2035
HITS/FILLS STATS: MAP_SIZE: 1
0 2
END HITS/FILLS STATS. CLEARING MAPS...
SIG: 0 hits: 0 fills: 7 hits/fills: 0
SIG: 4231732 hits: 2029 fills: 2041 hits/fills: 0
FILLS: 2048 HITS: 2029
HITS/FILLS STATS: MAP_SIZE: 1
0 2
END HITS/FILLS STATS. CLEARING MAPS...
SIG: 0 hits: 0 fills: 4 hits/fills: 0
SIG: 4231732 hits: 2044 fills: 2044 hits/fills: 1
FILLS: 2048 HITS: 2044
HITS/FILLS STATS: MAP_SIZE: 2
0 1
1 1
END HITS/FILLS STATS. CLEARING MAPS...
SIG: 0 hits: 0 fills: 3 hits/fills: 0
SIG: 4231732 hits: 2042 fills: 2045 hits/fills: 0
FILLS: 2048 HITS: 2042
HITS/FILLS STATS: MAP_SIZE: 1
0 2
END HITS/FILLS STATS. CLEARING MAPS...
SIG: 0 hits: 0 fills: 57 hits/fills: 0
SIG: 4231732 hits: 1933 fills: 1991 hits/fills: 0
FILLS: 2048 HITS: 1933
HITS/FILLS STATS: MAP_SIZE: 1
0 2
END HITS/FILLS STATS. CLEARING MAPS...
SIG: 0 hits: 0 fills: 7 hits/fills: 0
SIG: 4231706 hits: 0 fills: 1 hits/fills: 0
SIG: 4231732 hits: 2025 fills: 2031 hits/fills: 0
SIG: 4289302 hits: 0 fills: 1 hits/fills: 0
SIG: 4290275 hits: 0 fills: 1 hits/fills: 0
SIG: 4290279 hits: 0 fills: 1 hits/fills: 0
SIG: 4290566 hits: 0 fills: 1 hits/fills: 0
SIG: 4293332 hits: 0 fills: 1 hits/fills: 0
SIG: 4293363 hits: 1 fills: 1 hits/fills: 1
SIG: 4298493 hits: 0 fills: 1 hits/fills: 0
SIG: 4298513 hits: 0 fills: 1 hits/fills: 0
SIG: 4298552 hits: 0 fills: 1 hits/fills: 0
FILLS: 2048 HITS: 2026
HITS/FILLS STATS: MAP_SIZE: 2
0 11
1 1
END HITS/FILLS STATS. CLEARING MAPS...
SIG: 0 hits: 0 fills: 5 hits/fills: 0
SIG: 4231732 hits: 2038 fills: 2043 hits/fills: 0
FILLS: 2048 HITS: 2038
HITS/FILLS STATS: MAP_SIZE: 1
0 2
END HITS/FILLS STATS. CLEARING MAPS...
SIG: 0 hits: 0 fills: 11 hits/fills: 0
SIG: 4231732 hits: 2026 fills: 2037 hits/fills: 0
FILLS: 2048 HITS: 2026
HITS/FILLS STATS: MAP_SIZE: 1
0 2
END HITS/FILLS STATS. CLEARING MAPS...
SIG: 0 hits: 0 fills: 13 hits/fills: 0
SIG: 4231732 hits: 2023 fills: 2035 hits/fills: 0
FILLS: 2048 HITS: 2023
HITS/FILLS STATS: MAP_SIZE: 1
0 2
END HITS/FILLS STATS. CLEARING MAPS...
SIG: 0 hits: 0 fills: 3 hits/fills: 0
SIG: 4231732 hits: 2040 fills: 2045 hits/fills: 0
FILLS: 2048 HITS: 2040
HITS/FILLS STATS: MAP_SIZE: 1
0 2
END HITS/FILLS STATS. CLEARING MAPS...
SIG: 0 hits: 0 fills: 6 hits/fills: 0
SIG: 4231732 hits: 2034 fills: 2042 hits/fills: 0
FILLS: 2048 HITS: 2034
HITS/FILLS STATS: MAP_SIZE: 1
0 2
END HITS/FILLS STATS. CLEARING MAPS...
SIG: 0 hits: 0 fills: 7 hits/fills: 0
SIG: 4231732 hits: 2037 fills: 2041 hits/fills: 0
FILLS: 2048 HITS: 2037
HITS/FILLS STATS: MAP_SIZE: 1
0 2
END HITS/FILLS STATS. CLEARING MAPS...
Heartbeat CPU 0 instructions: 3000002 cycles: 26023365 heartbeat IPC: 0.112286 cumulative IPC: 0.111635 (Simulation time: 0 hr 0 min 48 sec) 
SIG: 0 hits: 0 fills: 6 hits/fills: 0
SIG: 4231732 hits: 2037 fills: 2042 hits/fills: 0
FILLS: 2048 HITS: 2037
HITS/FILLS STATS: MAP_SIZE: 1
0 2
END HITS/FILLS STATS. CLEARING MAPS...
SIG: 0 hits: 0 fills: 4 hits/fills: 0
SIG: 4231732 hits: 2040 fills: 2044 hits/fills: 0
FILLS: 2048 HITS: 2040
HITS/FILLS STATS: MAP_SIZE: 1
0 2
END HITS/FILLS STATS. CLEARING MAPS...
SIG: 0 hits: 0 fills: 7 hits/fills: 0
SIG: 4231732 hits: 2031 fills: 2041 hits/fills: 0
FILLS: 2048 HITS: 2031
HITS/FILLS STATS: MAP_SIZE: 1
0 2
END HITS/FILLS STATS. CLEARING MAPS...
SIG: 0 hits: 0 fills: 4 hits/fills: 0
SIG: 4231732 hits: 2040 fills: 2044 hits/fills: 0
FILLS: 2048 HITS: 2040
HITS/FILLS STATS: MAP_SIZE: 1
0 2
END HITS/FILLS STATS. CLEARING MAPS...
SIG: 0 hits: 0 fills: 5 hits/fills: 0
SIG: 4231732 hits: 2039 fills: 2043 hits/fills: 0
FILLS: 2048 HITS: 2039
HITS/FILLS STATS: MAP_SIZE: 1
0 2
END HITS/FILLS STATS. CLEARING MAPS...
SIG: 0 hits: 0 fills: 7 hits/fills: 0
SIG: 4231732 hits: 2031 fills: 2041 hits/fills: 0
FILLS: 2048 HITS: 2031
HITS/FILLS STATS: MAP_SIZE: 1
0 2
END HITS/FILLS STATS. CLEARING MAPS...
SIG: 0 hits: 0 fills: 7 hits/fills: 0
SIG: 4231732 hits: 2033 fills: 2041 hits/fills: 0
FILLS: 2048 HITS: 2033
HITS/FILLS STATS: MAP_SIZE: 1
0 2
END HITS/FILLS STATS. CLEARING MAPS...
SIG: 0 hits: 0 fills: 4 hits/fills: 0
SIG: 4231732 hits: 2041 fills: 2044 hits/fills: 0
FILLS: 2048 HITS: 2041
HITS/FILLS STATS: MAP_SIZE: 1
0 2
END HITS/FILLS STATS. CLEARING MAPS...
SIG: 0 hits: 0 fills: 10 hits/fills: 0
SIG: 4231732 hits: 2032 fills: 2038 hits/fills: 0
FILLS: 2048 HITS: 2032
HITS/FILLS STATS: MAP_SIZE: 1
0 2
END HITS/FILLS STATS. CLEARING MAPS...
SIG: 0 hits: 0 fills: 6 hits/fills: 0
SIG: 4231732 hits: 2036 fills: 2042 hits/fills: 0
FILLS: 2048 HITS: 2036
HITS/FILLS STATS: MAP_SIZE: 1
0 2
END HITS/FILLS STATS. CLEARING MAPS...
SIG: 0 hits: 0 fills: 4 hits/fills: 0
SIG: 4231732 hits: 2041 fills: 2044 hits/fills: 0
FILLS: 2048 HITS: 2041
HITS/FILLS STATS: MAP_SIZE: 1
0 2
END HITS/FILLS STATS. CLEARING MAPS...
SIG: 0 hits: 0 fills: 3 hits/fills: 0
SIG: 4231732 hits: 2041 fills: 2045 hits/fills: 0
FILLS: 2048 HITS: 2041
HITS/FILLS STATS: MAP_SIZE: 1
0 2
END HITS/FILLS STATS. CLEARING MAPS...
SIG: 0 hits: 0 fills: 5 hits/fills: 0
SIG: 4231732 hits: 2037 fills: 2043 hits/fills: 0
FILLS: 2048 HITS: 2037
HITS/FILLS STATS: MAP_SIZE: 1
0 2
END HITS/FILLS STATS. CLEARING MAPS...
SIG: 0 hits: 0 fills: 5 hits/fills: 0
SIG: 4231732 hits: 2037 fills: 2043 hits/fills: 0
FILLS: 2048 HITS: 2037
HITS/FILLS STATS: MAP_SIZE: 1
0 2
END HITS/FILLS STATS. CLEARING MAPS...
SIG: 0 hits: 0 fills: 4 hits/fills: 0
SIG: 4231732 hits: 2042 fills: 2044 hits/fills: 0
FILLS: 2048 HITS: 2042
HITS/FILLS STATS: MAP_SIZE: 1
0 2
END HITS/FILLS STATS. CLEARING MAPS...
SIG: 0 hits: 0 fills: 2 hits/fills: 0
SIG: 4231732 hits: 2044 fills: 2046 hits/fills: 0
FILLS: 2048 HITS: 2044
HITS/FILLS STATS: MAP_SIZE: 1
0 2
END HITS/FILLS STATS. CLEARING MAPS...
SIG: 0 hits: 0 fills: 3 hits/fills: 0
SIG: 4231732 hits: 2038 fills: 2045 hits/fills: 0
FILLS: 2048 HITS: 2038
HITS/FILLS STATS: MAP_SIZE: 1
0 2
END HITS/FILLS STATS. CLEARING MAPS...
SIG: 0 hits: 0 fills: 5 hits/fills: 0
SIG: 4231732 hits: 2043 fills: 2043 hits/fills: 1
FILLS: 2048 HITS: 2043
HITS/FILLS STATS: MAP_SIZE: 2
0 1
1 1
END HITS/FILLS STATS. CLEARING MAPS...
SIG: 4231732 hits: 2047 fills: 2048 hits/fills: 0
FILLS: 2048 HITS: 2047
HITS/FILLS STATS: MAP_SIZE: 1
0 1
END HITS/FILLS STATS. CLEARING MAPS...
SIG: 0 hits: 0 fills: 74 hits/fills: 0
SIG: 4231732 hits: 1900 fills: 1974 hits/fills: 0
FILLS: 2048 HITS: 1900
HITS/FILLS STATS: MAP_SIZE: 1
0 2
END HITS/FILLS STATS. CLEARING MAPS...
SIG: 0 hits: 0 fills: 6 hits/fills: 0
SIG: 4231732 hits: 2031 fills: 2042 hits/fills: 0
FILLS: 2048 HITS: 2031
HITS/FILLS STATS: MAP_SIZE: 1
0 2
END HITS/FILLS STATS. CLEARING MAPS...
SIG: 0 hits: 0 fills: 5 hits/fills: 0
SIG: 4231732 hits: 2044 fills: 2043 hits/fills: 1
FILLS: 2048 HITS: 2044
HITS/FILLS STATS: MAP_SIZE: 2
0 1
1 1
END HITS/FILLS STATS. CLEARING MAPS...
SIG: 0 hits: 0 fills: 3 hits/fills: 0
SIG: 4231732 hits: 2037 fills: 2045 hits/fills: 0
FILLS: 2048 HITS: 2037
HITS/FILLS STATS: MAP_SIZE: 1
0 2
END HITS/FILLS STATS. CLEARING MAPS...
SIG: 0 hits: 0 fills: 31 hits/fills: 0
SIG: 4231732 hits: 1990 fills: 2017 hits/fills: 0
FILLS: 2048 HITS: 1990
HITS/FILLS STATS: MAP_SIZE: 1
0 2
END HITS/FILLS STATS. CLEARING MAPS...
SIG: 0 hits: 0 fills: 5 hits/fills: 0
SIG: 4231732 hits: 2038 fills: 2043 hits/fills: 0
FILLS: 2048 HITS: 2038
HITS/FILLS STATS: MAP_SIZE: 1
0 2
END HITS/FILLS STATS. CLEARING MAPS...
SIG: 0 hits: 0 fills: 4 hits/fills: 0
SIG: 4231732 hits: 2035 fills: 2040 hits/fills: 0
SIG: 4290275 hits: 0 fills: 1 hits/fills: 0
SIG: 4290566 hits: 0 fills: 1 hits/fills: 0
SIG: 4293363 hits: 1 fills: 1 hits/fills: 1
SIG: 4298513 hits: 0 fills: 1 hits/fills: 0
FILLS: 2048 HITS: 2036
HITS/FILLS STATS: MAP_SIZE: 2
0 5
1 1
END HITS/FILLS STATS. CLEARING MAPS...
SIG: 0 hits: 0 fills: 6 hits/fills: 0
SIG: 4231732 hits: 2038 fills: 2042 hits/fills: 0
FILLS: 2048 HITS: 2038
HITS/FILLS STATS: MAP_SIZE: 1
0 2
END HITS/FILLS STATS. CLEARING MAPS...
SIG: 0 hits: 0 fills: 4 hits/fills: 0
SIG: 4231732 hits: 2039 fills: 2044 hits/fills: 0
FILLS: 2048 HITS: 2039
HITS/FILLS STATS: MAP_SIZE: 1
0 2
END HITS/FILLS STATS. CLEARING MAPS...
SIG: 0 hits: 0 fills: 5 hits/fills: 0
SIG: 4231732 hits: 2038 fills: 2043 hits/fills: 0
FILLS: 2048 HITS: 2038
HITS/FILLS STATS: MAP_SIZE: 1
0 2
END HITS/FILLS STATS. CLEARING MAPS...
SIG: 0 hits: 0 fills: 4 hits/fills: 0
SIG: 4231732 hits: 2040 fills: 2044 hits/fills: 0
FILLS: 2048 HITS: 2040
HITS/FILLS STATS: MAP_SIZE: 1
0 2
END HITS/FILLS STATS. CLEARING MAPS...
SIG: 0 hits: 0 fills: 6 hits/fills: 0
SIG: 4231732 hits: 2034 fills: 2042 hits/fills: 0
FILLS: 2048 HITS: 2034
HITS/FILLS STATS: MAP_SIZE: 1
0 2
END HITS/FILLS STATS. CLEARING MAPS...
SIG: 0 hits: 0 fills: 3 hits/fills: 0
SIG: 4231732 hits: 2044 fills: 2045 hits/fills: 0
FILLS: 2048 HITS: 2044
HITS/FILLS STATS: MAP_SIZE: 1
0 2
END HITS/FILLS STATS. CLEARING MAPS...
SIG: 0 hits: 0 fills: 4 hits/fills: 0
SIG: 4231732 hits: 2040 fills: 2044 hits/fills: 0
FILLS: 2048 HITS: 2040
HITS/FILLS STATS: MAP_SIZE: 1
0 2
END HITS/FILLS STATS. CLEARING MAPS...
SIG: 0 hits: 0 fills: 3 hits/fills: 0
SIG: 4231732 hits: 2042 fills: 2045 hits/fills: 0
FILLS: 2048 HITS: 2042
HITS/FILLS STATS: MAP_SIZE: 1
0 2
END HITS/FILLS STATS. CLEARING MAPS...
SIG: 0 hits: 0 fills: 4 hits/fills: 0
SIG: 4231732 hits: 2040 fills: 2044 hits/fills: 0
FILLS: 2048 HITS: 2040
HITS/FILLS STATS: MAP_SIZE: 1
0 2
END HITS/FILLS STATS. CLEARING MAPS...
SIG: 0 hits: 0 fills: 5 hits/fills: 0
SIG: 4231732 hits: 2038 fills: 2043 hits/fills: 0
FILLS: 2048 HITS: 2038
HITS/FILLS STATS: MAP_SIZE: 1
0 2
END HITS/FILLS STATS. CLEARING MAPS...
SIG: 0 hits: 0 fills: 3 hits/fills: 0
SIG: 4231732 hits: 2042 fills: 2045 hits/fills: 0
FILLS: 2048 HITS: 2042
HITS/FILLS STATS: MAP_SIZE: 1
0 2
END HITS/FILLS STATS. CLEARING MAPS...
SIG: 0 hits: 0 fills: 7 hits/fills: 0
SIG: 4231732 hits: 2035 fills: 2041 hits/fills: 0
FILLS: 2048 HITS: 2035
HITS/FILLS STATS: MAP_SIZE: 1
0 2
END HITS/FILLS STATS. CLEARING MAPS...
SIG: 0 hits: 0 fills: 6 hits/fills: 0
SIG: 4231732 hits: 2034 fills: 2042 hits/fills: 0
FILLS: 2048 HITS: 2034
HITS/FILLS STATS: MAP_SIZE: 1
0 2
END HITS/FILLS STATS. CLEARING MAPS...
SIG: 0 hits: 0 fills: 11 hits/fills: 0
SIG: 4231732 hits: 2027 fills: 2037 hits/fills: 0
FILLS: 2048 HITS: 2027
HITS/FILLS STATS: MAP_SIZE: 1
0 2
END HITS/FILLS STATS. CLEARING MAPS...
SIG: 0 hits: 0 fills: 2 hits/fills: 0
SIG: 4231732 hits: 2039 fills: 2046 hits/fills: 0
FILLS: 2048 HITS: 2039
HITS/FILLS STATS: MAP_SIZE: 1
0 2
END HITS/FILLS STATS. CLEARING MAPS...
SIG: 0 hits: 0 fills: 4 hits/fills: 0
SIG: 4231732 hits: 2045 fills: 2044 hits/fills: 1
FILLS: 2048 HITS: 2045
HITS/FILLS STATS: MAP_SIZE: 2
0 1
1 1
END HITS/FILLS STATS. CLEARING MAPS...
SIG: 4231732 hits: 2046 fills: 2048 hits/fills: 0
FILLS: 2048 HITS: 2046
HITS/FILLS STATS: MAP_SIZE: 1
0 1
END HITS/FILLS STATS. CLEARING MAPS...
SIG: 0 hits: 0 fills: 21 hits/fills: 0
SIG: 4231732 hits: 2008 fills: 2027 hits/fills: 0
FILLS: 2048 HITS: 2008
HITS/FILLS STATS: MAP_SIZE: 1
0 2
END HITS/FILLS STATS. CLEARING MAPS...
SIG: 0 hits: 0 fills: 8 hits/fills: 0
SIG: 4231732 hits: 2033 fills: 2040 hits/fills: 0
FILLS: 2048 HITS: 2033
HITS/FILLS STATS: MAP_SIZE: 1
0 2
END HITS/FILLS STATS. CLEARING MAPS...
SIG: 0 hits: 0 fills: 4 hits/fills: 0
SIG: 4231732 hits: 2040 fills: 2044 hits/fills: 0
FILLS: 2048 HITS: 2040
HITS/FILLS STATS: MAP_SIZE: 1
0 2
END HITS/FILLS STATS. CLEARING MAPS...
SIG: 0 hits: 0 fills: 5 hits/fills: 0
SIG: 4231732 hits: 2035 fills: 2043 hits/fills: 0
FILLS: 2048 HITS: 2035
HITS/FILLS STATS: MAP_SIZE: 1
0 2
END HITS/FILLS STATS. CLEARING MAPS...
SIG: 0 hits: 0 fills: 3 hits/fills: 0
SIG: 4231732 hits: 2043 fills: 2045 hits/fills: 0
FILLS: 2048 HITS: 2043
HITS/FILLS STATS: MAP_SIZE: 1
0 2
END HITS/FILLS STATS. CLEARING MAPS...
SIG: 0 hits: 0 fills: 3 hits/fills: 0
SIG: 4231732 hits: 2043 fills: 2045 hits/fills: 0
FILLS: 2048 HITS: 2043
HITS/FILLS STATS: MAP_SIZE: 1
0 2
END HITS/FILLS STATS. CLEARING MAPS...
SIG: 0 hits: 0 fills: 5 hits/fills: 0
SIG: 4231732 hits: 2034 fills: 2043 hits/fills: 0
FILLS: 2048 HITS: 2034
HITS/FILLS STATS: MAP_SIZE: 1
0 2
END HITS/FILLS STATS. CLEARING MAPS...
SIG: 0 hits: 0 fills: 2 hits/fills: 0
SIG: 4231732 hits: 2047 fills: 2046 hits/fills: 1
FILLS: 2048 HITS: 2047
HITS/FILLS STATS: MAP_SIZE: 2
0 1
1 1
END HITS/FILLS STATS. CLEARING MAPS...
SIG: 0 hits: 0 fills: 2 hits/fills: 0
SIG: 4231732 hits: 2045 fills: 2046 hits/fills: 0
FILLS: 2048 HITS: 2045
HITS/FILLS STATS: MAP_SIZE: 1
0 2
END HITS/FILLS STATS. CLEARING MAPS...
SIG: 0 hits: 0 fills: 89 hits/fills: 0
SIG: 4231732 hits: 1866 fills: 1959 hits/fills: 0
FILLS: 2048 HITS: 1866
HITS/FILLS STATS: MAP_SIZE: 1
0 2
END HITS/FILLS STATS. CLEARING MAPS...
SIG: 0 hits: 0 fills: 8 hits/fills: 0
SIG: 4231732 hits: 2033 fills: 2040 hits/fills: 0
FILLS: 2048 HITS: 2033
HITS/FILLS STATS: MAP_SIZE: 1
0 2
END HITS/FILLS STATS. CLEARING MAPS...
SIG: 0 hits: 0 fills: 7 hits/fills: 0
SIG: 4231732 hits: 2038 fills: 2041 hits/fills: 0
FILLS: 2048 HITS: 2038
HITS/FILLS STATS: MAP_SIZE: 1
0 2
END HITS/FILLS STATS. CLEARING MAPS...
SIG: 0 hits: 0 fills: 7 hits/fills: 0
SIG: 4231732 hits: 2033 fills: 2041 hits/fills: 0
FILLS: 2048 HITS: 2033
HITS/FILLS STATS: MAP_SIZE: 1
0 2
END HITS/FILLS STATS. CLEARING MAPS...
SIG: 0 hits: 0 fills: 2 hits/fills: 0
SIG: 4231732 hits: 2045 fills: 2046 hits/fills: 0
FILLS: 2048 HITS: 2045
HITS/FILLS STATS: MAP_SIZE: 1
0 2
END HITS/FILLS STATS. CLEARING MAPS...
SIG: 0 hits: 0 fills: 6 hits/fills: 0
SIG: 4195088 hits: 0 fills: 1 hits/fills: 0
SIG: 4231732 hits: 1983 fills: 1990 hits/fills: 0
SIG: 4252569 hits: 0 fills: 1 hits/fills: 0
SIG: 4252589 hits: 0 fills: 1 hits/fills: 0
SIG: 4261808 hits: 0 fills: 1 hits/fills: 0
SIG: 4263760 hits: 1 fills: 1 hits/fills: 1
SIG: 4268226 hits: 0 fills: 1 hits/fills: 0
SIG: 4272041 hits: 0 fills: 1 hits/fills: 0
SIG: 4417996 hits: 0 fills: 1 hits/fills: 0
SIG: 4418007 hits: 1 fills: 1 hits/fills: 1
SIG: 4418014 hits: 0 fills: 1 hits/fills: 0
SIG: 4418168 hits: 0 fills: 1 hits/fills: 0
SIG: 4440104 hits: 0 fills: 1 hits/fills: 0
SIG: 4440132 hits: 0 fills: 4 hits/fills: 0
SIG: 4440140 hits: 0 fills: 16 hits/fills: 0
SIG: 4445984 hits: 0 fills: 1 hits/fills: 0
SIG: 4446042 hits: 0 fills: 1 hits/fills: 0
SIG: 4446061 hits: 0 fills: 1 hits/fills: 0
SIG: 4446072 hits: 0 fills: 1 hits/fills: 0
SIG: 4446136 hits: 0 fills: 1 hits/fills: 0
SIG: 4446143 hits: 0 fills: 1 hits/fills: 0
SIG: 4446562 hits: 0 fills: 2 hits/fills: 0
SIG: 4446636 hits: 1 fills: 1 hits/fills: 1
SIG: 4446667 hits: 0 fills: 1 hits/fills: 0
SIG: 4447017 hits: 0 fills: 1 hits/fills: 0
SIG: 4447196 hits: 0 fills: 1 hits/fills: 0
SIG: 4447217 hits: 0 fills: 1 hits/fills: 0
SIG: 4447235 hits: 0 fills: 1 hits/fills: 0
SIG: 4447293 hits: 0 fills: 1 hits/fills: 0
SIG: 4461792 hits: 0 fills: 1 hits/fills: 0
SIG: 4542688 hits: 0 fills: 1 hits/fills: 0
SIG: 4542722 hits: 0 fills: 1 hits/fills: 0
SIG: 4636264 hits: 0 fills: 1 hits/fills: 0
SIG: 4678378 hits: 0 fills: 1 hits/fills: 0
FILLS: 2048 HITS: 1986
HITS/FILLS STATS: MAP_SIZE: 2
0 32
1 3
END HITS/FILLS STATS. CLEARING MAPS...
SIG: 0 hits: 0 fills: 10 hits/fills: 0
SIG: 4231732 hits: 2027 fills: 2038 hits/fills: 0
FILLS: 2048 HITS: 2027
HITS/FILLS STATS: MAP_SIZE: 1
0 2
END HITS/FILLS STATS. CLEARING MAPS...
SIG: 0 hits: 0 fills: 6 hits/fills: 0
SIG: 4231732 hits: 2036 fills: 2042 hits/fills: 0
FILLS: 2048 HITS: 2036
HITS/FILLS STATS: MAP_SIZE: 1
0 2
END HITS/FILLS STATS. CLEARING MAPS...
SIG: 0 hits: 0 fills: 9 hits/fills: 0
SIG: 4231732 hits: 2028 fills: 2039 hits/fills: 0
FILLS: 2048 HITS: 2028
HITS/FILLS STATS: MAP_SIZE: 1
0 2
END HITS/FILLS STATS. CLEARING MAPS...
SIG: 0 hits: 0 fills: 5 hits/fills: 0
SIG: 4231732 hits: 2042 fills: 2043 hits/fills: 0
FILLS: 2048 HITS: 2042
HITS/FILLS STATS: MAP_SIZE: 1
0 2
END HITS/FILLS STATS. CLEARING MAPS...
SIG: 0 hits: 0 fills: 7 hits/fills: 0
SIG: 4231732 hits: 2033 fills: 2041 hits/fills: 0
FILLS: 2048 HITS: 2033
HITS/FILLS STATS: MAP_SIZE: 1
0 2
END HITS/FILLS STATS. CLEARING MAPS...
SIG: 0 hits: 0 fills: 6 hits/fills: 0
SIG: 4231732 hits: 2036 fills: 2042 hits/fills: 0
FILLS: 2048 HITS: 2036
HITS/FILLS STATS: MAP_SIZE: 1
0 2
END HITS/FILLS STATS. CLEARING MAPS...
SIG: 0 hits: 0 fills: 4 hits/fills: 0
SIG: 4231732 hits: 2040 fills: 2044 hits/fills: 0
FILLS: 2048 HITS: 2040
HITS/FILLS STATS: MAP_SIZE: 1
0 2
END HITS/FILLS STATS. CLEARING MAPS...
SIG: 0 hits: 0 fills: 8 hits/fills: 0
SIG: 4231732 hits: 2032 fills: 2040 hits/fills: 0
FILLS: 2048 HITS: 2032
HITS/FILLS STATS: MAP_SIZE: 1
0 2
END HITS/FILLS STATS. CLEARING MAPS...
SIG: 0 hits: 0 fills: 3 hits/fills: 0
SIG: 4231732 hits: 2043 fills: 2045 hits/fills: 0
FILLS: 2048 HITS: 2043
HITS/FILLS STATS: MAP_SIZE: 1
0 2
END HITS/FILLS STATS. CLEARING MAPS...
SIG: 0 hits: 0 fills: 5 hits/fills: 0
SIG: 4231732 hits: 2037 fills: 2043 hits/fills: 0
FILLS: 2048 HITS: 2037
HITS/FILLS STATS: MAP_SIZE: 1
0 2
END HITS/FILLS STATS. CLEARING MAPS...
SIG: 0 hits: 0 fills: 5 hits/fills: 0
SIG: 4231732 hits: 2037 fills: 2043 hits/fills: 0
FILLS: 2048 HITS: 2037
HITS/FILLS STATS: MAP_SIZE: 1
0 2
END HITS/FILLS STATS. CLEARING MAPS...
SIG: 0 hits: 0 fills: 3 hits/fills: 0
SIG: 4231732 hits: 2043 fills: 2045 hits/fills: 0
FILLS: 2048 HITS: 2043
HITS/FILLS STATS: MAP_SIZE: 1
0 2
END HITS/FILLS STATS. CLEARING MAPS...
SIG: 0 hits: 0 fills: 5 hits/fills: 0
SIG: 4231732 hits: 2034 fills: 2043 hits/fills: 0
FILLS: 2048 HITS: 2034
HITS/FILLS STATS: MAP_SIZE: 1
0 2
END HITS/FILLS STATS. CLEARING MAPS...
SIG: 0 hits: 0 fills: 7 hits/fills: 0
SIG: 4231732 hits: 2038 fills: 2041 hits/fills: 0
FILLS: 2048 HITS: 2038
HITS/FILLS STATS: MAP_SIZE: 1
0 2
END HITS/FILLS STATS. CLEARING MAPS...
SIG: 0 hits: 0 fills: 9 hits/fills: 0
SIG: 4231732 hits: 2030 fills: 2039 hits/fills: 0
FILLS: 2048 HITS: 2030
HITS/FILLS STATS: MAP_SIZE: 1
0 2
END HITS/FILLS STATS. CLEARING MAPS...
SIG: 0 hits: 0 fills: 2 hits/fills: 0
SIG: 4231732 hits: 2044 fills: 2046 hits/fills: 0
FILLS: 2048 HITS: 2044
HITS/FILLS STATS: MAP_SIZE: 1
0 2
END HITS/FILLS STATS. CLEARING MAPS...
SIG: 0 hits: 0 fills: 5 hits/fills: 0
SIG: 4231732 hits: 2034 fills: 2043 hits/fills: 0
FILLS: 2048 HITS: 2034
HITS/FILLS STATS: MAP_SIZE: 1
0 2
END HITS/FILLS STATS. CLEARING MAPS...
SIG: 0 hits: 0 fills: 9 hits/fills: 0
SIG: 4231732 hits: 2035 fills: 2039 hits/fills: 0
FILLS: 2048 HITS: 2035
HITS/FILLS STATS: MAP_SIZE: 1
0 2
END HITS/FILLS STATS. CLEARING MAPS...
SIG: 0 hits: 0 fills: 5 hits/fills: 0
SIG: 4231732 hits: 2037 fills: 2043 hits/fills: 0
FILLS: 2048 HITS: 2037
HITS/FILLS STATS: MAP_SIZE: 1
0 2
END HITS/FILLS STATS. CLEARING MAPS...
SIG: 0 hits: 0 fills: 3 hits/fills: 0
SIG: 4231732 hits: 2043 fills: 2045 hits/fills: 0
FILLS: 2048 HITS: 2043
HITS/FILLS STATS: MAP_SIZE: 1
0 2
END HITS/FILLS STATS. CLEARING MAPS...
SIG: 0 hits: 0 fills: 8 hits/fills: 0
SIG: 4231732 hits: 2026 fills: 2040 hits/fills: 0
FILLS: 2048 HITS: 2026
HITS/FILLS STATS: MAP_SIZE: 1
0 2
END HITS/FILLS STATS. CLEARING MAPS...
SIG: 0 hits: 0 fills: 4 hits/fills: 0
SIG: 4231732 hits: 2044 fills: 2044 hits/fills: 1
FILLS: 2048 HITS: 2044
HITS/FILLS STATS: MAP_SIZE: 2
0 1
1 1
END HITS/FILLS STATS. CLEARING MAPS...
SIG: 4231706 hits: 0 fills: 1 hits/fills: 0
SIG: 4231732 hits: 2040 fills: 2038 hits/fills: 1
SIG: 4288876 hits: 0 fills: 1 hits/fills: 0
SIG: 4289344 hits: 0 fills: 1 hits/fills: 0
SIG: 4290275 hits: 0 fills: 1 hits/fills: 0
SIG: 4290279 hits: 0 fills: 1 hits/fills: 0
SIG: 4290566 hits: 0 fills: 1 hits/fills: 0
SIG: 4293363 hits: 0 fills: 1 hits/fills: 0
SIG: 4298453 hits: 0 fills: 1 hits/fills: 0
SIG: 4298493 hits: 0 fills: 1 hits/fills: 0
SIG: 4298513 hits: 0 fills: 1 hits/fills: 0
FILLS: 2048 HITS: 2040
HITS/FILLS STATS: MAP_SIZE: 2
0 10
1 1
END HITS/FILLS STATS. CLEARING MAPS...
SIG: 0 hits: 0 fills: 1 hits/fills: 0
SIG: 4231732 hits: 2045 fills: 2047 hits/fills: 0
SIG: 4293363 hits: 1 fills: 0 hits/fills: 2
FILLS: 2048 HITS: 2046
HITS/FILLS STATS: MAP_SIZE: 2
0 2
2 1
END HITS/FILLS STATS. CLEARING MAPS...
SIG: 0 hits: 0 fills: 50 hits/fills: 0
SIG: 4231732 hits: 1949 fills: 1998 hits/fills: 0
FILLS: 2048 HITS: 1949
HITS/FILLS STATS: MAP_SIZE: 1
0 2
END HITS/FILLS STATS. CLEARING MAPS...
SIG: 0 hits: 0 fills: 7 hits/fills: 0
SIG: 4231732 hits: 2033 fills: 2041 hits/fills: 0
FILLS: 2048 HITS: 2033
HITS/FILLS STATS: MAP_SIZE: 1
0 2
END HITS/FILLS STATS. CLEARING MAPS...
SIG: 0 hits: 0 fills: 4 hits/fills: 0
SIG: 4231732 hits: 2040 fills: 2044 hits/fills: 0
FILLS: 2048 HITS: 2040
HITS/FILLS STATS: MAP_SIZE: 1
0 2
END HITS/FILLS STATS. CLEARING MAPS...
SIG: 0 hits: 0 fills: 8 hits/fills: 0
SIG: 4231732 hits: 2033 fills: 2040 hits/fills: 0
FILLS: 2048 HITS: 2033
HITS/FILLS STATS: MAP_SIZE: 1
0 2
END HITS/FILLS STATS. CLEARING MAPS...
SIG: 0 hits: 0 fills: 2 hits/fills: 0
SIG: 4231732 hits: 2041 fills: 2046 hits/fills: 0
FILLS: 2048 HITS: 2041
HITS/FILLS STATS: MAP_SIZE: 1
0 2
END HITS/FILLS STATS. CLEARING MAPS...
SIG: 0 hits: 0 fills: 5 hits/fills: 0
SIG: 4231732 hits: 2041 fills: 2043 hits/fills: 0
FILLS: 2048 HITS: 2041
HITS/FILLS STATS: MAP_SIZE: 1
0 2
END HITS/FILLS STATS. CLEARING MAPS...
SIG: 0 hits: 0 fills: 3 hits/fills: 0
SIG: 4231732 hits: 2039 fills: 2045 hits/fills: 0
FILLS: 2048 HITS: 2039
HITS/FILLS STATS: MAP_SIZE: 1
0 2
END HITS/FILLS STATS. CLEARING MAPS...
SIG: 0 hits: 0 fills: 7 hits/fills: 0
SIG: 4231732 hits: 2032 fills: 2041 hits/fills: 0
FILLS: 2048 HITS: 2032
HITS/FILLS STATS: MAP_SIZE: 1
0 2
END HITS/FILLS STATS. CLEARING MAPS...
SIG: 0 hits: 0 fills: 6 hits/fills: 0
SIG: 4231732 hits: 2041 fills: 2042 hits/fills: 0
FILLS: 2048 HITS: 2041
HITS/FILLS STATS: MAP_SIZE: 1
0 2
END HITS/FILLS STATS. CLEARING MAPS...
SIG: 0 hits: 0 fills: 3 hits/fills: 0
SIG: 4231732 hits: 2041 fills: 2045 hits/fills: 0
FILLS: 2048 HITS: 2041
HITS/FILLS STATS: MAP_SIZE: 1
0 2
END HITS/FILLS STATS. CLEARING MAPS...
SIG: 0 hits: 0 fills: 3 hits/fills: 0
SIG: 4231732 hits: 2042 fills: 2045 hits/fills: 0
FILLS: 2048 HITS: 2042
HITS/FILLS STATS: MAP_SIZE: 1
0 2
END HITS/FILLS STATS. CLEARING MAPS...
SIG: 0 hits: 0 fills: 3 hits/fills: 0
SIG: 4231732 hits: 2043 fills: 2045 hits/fills: 0
FILLS: 2048 HITS: 2043
HITS/FILLS STATS: MAP_SIZE: 1
0 2
END HITS/FILLS STATS. CLEARING MAPS...
SIG: 4231732 hits: 2048 fills: 2048 hits/fills: 1
FILLS: 2048 HITS: 2048
HITS/FILLS STATS: MAP_SIZE: 1
1 1
END HITS/FILLS STATS. CLEARING MAPS...
SIG: 4231732 hits: 2048 fills: 2048 hits/fills: 1
FILLS: 2048 HITS: 2048
HITS/FILLS STATS: MAP_SIZE: 1
1 1
END HITS/FILLS STATS. CLEARING MAPS...
                                                                                                                                                                                                                                                                                                                                                                                                                                                                                                                                                                                                                                                                                                                                                                                                                                                                                                                                                                                                                                                                                                                                                                                                                                                                                                                                