
*** ChampSim Multicore Out-of-Order Simulator ***

Warmup Instructions: 100000
Simulation Instructions: 1000000
Configuration: 1
Number of CPUs: 1
LLC sets: 2048
LLC ways: 16
Off-chip DRAM Channels: 1 Width: 64-bit Data Rate: 1600 MT/s

CPU 0 runs trace/bzip2_10M.trace.gz
Initialize LRU replacement state
cpu	0	set	1451	paddr	3884277918463	PC	4205311	type	0
cpu	0	set	1452	paddr	3884277918467	PC	4205315	type	0
0x55612db7e3d0 1452 0x55612da409c0 0x55612db7e3c0
cpu	0	set	1453	paddr	3884277918532	PC	4205380	type	0
0x55612db7e760 1453 0x55612da409c0 0x55612db7e740
cpu	0	set	1450	paddr	3884277918383	PC	4205231	type	0
0x55612db7dcb0 1450 0x55612da409c0 0x55612db7dcc0
cpu	0	set	1179	paddr	224579032262394	PC	4208378	type	0
0x55612db41740 1179 0x55612da409c0 0x55612db42840
cpu	0	set	1178	paddr	224579032262320	PC	4208304	type	0
0x55612db413b0 1178 0x55612da409c0 0x55612db424c0
cpu	0	set	1254	paddr	68068769610148	PC	4205315	type	0
0x55612db52270 1254 0x55612da409c0 0x55612db52ec0
cpu	0	set	1274	paddr	68068769611452	PC	4205319	type	0
0x55612db569b0 1274 0x55612da409c0 0x55612db574c0
cpu	0	set	1275	paddr	68068769611456	PC	4205391	type	0
0x55612db56d40 1275 0x55612da409c0 0x55612db57840
cpu	0	set	1290	paddr	160254226547384	PC	4205234	type	0
0x55612db5a2b0 1290 0x55612da409c0 0x55612db5acc0
cpu	0	set	106	paddr	163830644611740	PC	4208304	type	0
0x55612da528b0 106 0x55612da409c0 0x55612da57cc0
cpu	0	set	1291	paddr	160254226547440	PC	4208312	type	0
0x55612db5a640 1291 0x55612da409c0 0x55612db5b040
cpu	0	set	1180	paddr	224579032262403	PC	4208387	type	0
0x55612db41ad0 1180 0x55612da409c0 0x55612db42bc0
cpu	0	set	1271	paddr	68068769611214	PC	4205225	type	0
0x55612db55f00 1271 0x55612da409c0 0x55612db56a40
cpu	0	set	1181	paddr	224579032262495	PC	4208479	type	0
0x55612db41e60 1181 0x55612da409c0 0x55612db42f40
cpu	0	set	1182	paddr	224579032262530	PC	4208514	type	0
0x55612db421f0 1182 0x55612da409c0 0x55612db432c0
cpu	0	set	1230	paddr	68068769608632	PC	4205225	type	0
0x55612db4ccf0 1230 0x55612da409c0 0x55612db4dac0
cpu	0	set	1292	paddr	160254226547480	PC	4208382	type	0
0x55612db5a9d0 1292 0x55612da409c0 0x55612db5b3c0
cpu	0	set	1005	paddr	269827608738653	PC	4205221	type	0
0x55612db1ab60 1005 0x55612da409c0 0x55612db1c740
cpu	0	set	1347	paddr	53947296862404	PC	4205225	type	0
0x55612db66dc0 1347 0x55612da409c0 0x55612db67440
cpu	0	set	1183	paddr	224579032262592	PC	4208576	type	0
0x55612db42580 1183 0x55612da409c0 0x55612db43640
cpu	0	set	1175	paddr	224579032262128	PC	4208112	type	0
0x55612db40900 1175 0x55612da409c0 0x55612db41a40
cpu	0	set	1176	paddr	224579032262144	PC	4208128	type	0
0x55612db40c90 1176 0x55612da409c0 0x55612db41dc0
cpu	0	set	1177	paddr	224579032262212	PC	4208196	type	0
0x55612db41020 1177 0x55612da409c0 0x55612db42140
cpu	0	set	86	paddr	118336884184464	PC	4208554	type	0
0x55612da4e170 86 0x55612da409c0 0x55612da536c0
cpu	0	set	47	paddr	112734341565387	PC	4205221	type	0
0x55612da45680 47 0x55612da409c0 0x55612da4ae40
cpu	0	set	1018	paddr	269827608739473	PC	4205221	type	0
0x55612db1d9b0 1018 0x55612da409c0 0x55612db1f4c0
cpu	0	set	1003	paddr	269827608738496	PC	4205221	type	0
0x55612db1a440 1003 0x55612da409c0 0x55612db1c040
cpu	0	set	9	paddr	112734341562983	PC	4205221	type	0
0x55612da3cf20 9 0x55612da409c0 0x55612da42940
cpu	0	set	24	paddr	112734341563967	PC	4205221	type	0
0x55612da40490 24 0x55612da409c0 0x55612da45dc0
cpu	0	set	25	paddr	112734341563968	PC	4205247	type	0
0x55612da40820 25 0x55612da409c0 0x55612da46140
cpu	0	set	107	paddr	163830644611776	PC	4208427	type	0
0x55612da52c40 107 0x55612da409c0 0x55612da58040
cpu	0	set	13	paddr	112734341563204	PC	4205221	type	0
0x55612da3dd60 13 0x55612da409c0 0x55612da43740
cpu	0	set	55	paddr	112734341565926	PC	4205221	type	0
0x55612da47300 55 0x55612da409c0 0x55612da4ca40
cpu	0	set	986	paddr	269827608737456	PC	4205221	type	0
0x55612db167b0 986 0x55612da409c0 0x55612db184c0
cpu	0	set	34	paddr	112734341564555	PC	4205221	type	0
0x55612da42830 34 0x55612da409c0 0x55612da480c0
cpu	0	set	1240	paddr	68068769609239	PC	4205221	type	0
0x55612db4f090 1240 0x55612da409c0 0x55612db4fdc0
cpu	0	set	1261	paddr	68068769610589	PC	4205221	type	0
0x55612db53b60 1261 0x55612da409c0 0x55612db54740
cpu	0	set	30	paddr	112734341564341	PC	4205221	type	0
0x55612da419f0 30 0x55612da409c0 0x55612da472c0
cpu	0	set	1015	paddr	269827608739297	PC	4205221	type	0
0x55612db1cf00 1015 0x55612da409c0 0x55612db1ea40
cpu	0	set	1008	paddr	269827608738827	PC	4205221	type	0
0x55612db1b610 1008 0x55612da409c0 0x55612db1d1c0
cpu	0	set	992	paddr	269827608737836	PC	4205221	type	0
0x55612db17d10 992 0x55612da409c0 0x55612db199c0
cpu	0	set	972	paddr	269827608736534	PC	4205221	type	0
0x55612db135d0 972 0x55612da409c0 0x55612db153c0
cpu	0	set	4	paddr	112734341562660	PC	4205221	type	0
0x55612da3bd50 4 0x55612da409c0 0x55612da417c0
cpu	0	set	1401	paddr	53947296865868	PC	4205221	type	0
0x55612db72e20 1401 0x55612da409c0 0x55612db73140
cpu	0	set	577	paddr	250963675877486	PC	4205221	type	0
0x55612dabb6a0 577 0x55612da409c0 0x55612dabed40
cpu	0	set	1010	paddr	269827608738999	PC	4205221	type	0
0x55612db1bd30 1010 0x55612da409c0 0x55612db1d8c0
cpu	0	set	1168	paddr	224579032261662	PC	4207646	type	0
0x55612db3f010 1168 0x55612da409c0 0x55612db401c0
cpu	0	set	1169	paddr	224579032261699	PC	4207683	type	0
0x55612db3f3a0 1169 0x55612da409c0 0x55612db40540
cpu	0	set	1164	paddr	224579032261393	PC	4207377	type	0
0x55612db3e1d0 1164 0x55612da409c0 0x55612db3f3c0
cpu	0	set	1398	paddr	53947296865710	PC	4205221	type	0
0x55612db72370 1398 0x55612da409c0 0x55612db726c0
cpu	0	set	1165	paddr	224579032261440	PC	4207424	type	0
0x55612db3e560 1165 0x55612da409c0 0x55612db3f740
cpu	0	set	1166	paddr	224579032261504	PC	4207488	type	0
0x55612db3e8f0 1166 0x55612da409c0 0x55612db3fac0
cpu	0	set	1167	paddr	224579032261618	PC	4207602	type	0
0x55612db3ec80 1167 0x55612da409c0 0x55612db3fe40
cpu	0	set	1294	paddr	160254226547584	PC	4207676	type	0
0x55612db5b0f0 1294 0x55612da409c0 0x55612db5bac0
cpu	0	set	1306	paddr	160254226548384	PC	4207683	type	0
0x55612db5dbb0 1306 0x55612da409c0 0x55612db5e4c0
cpu	0	set	1300	paddr	160254226547984	PC	4207695	type	0
0x55612db5c650 1300 0x55612da409c0 0x55612db5cfc0
cpu	0	set	1169	paddr	177678284039243	PC	4207456	type	0
0x55612db3f3a0 1169 0x55612da409c0 0x55612db40540
cpu	0	set	1178	paddr	73944989640348	PC	4207472	type	0
0x55612db413b0 1178 0x55612da409c0 0x55612db424c0
cpu	0	set	1196	paddr	73944989641532	PC	4207477	type	0
0x55612db453d0 1196 0x55612da409c0 0x55612db463c0
cpu	0	set	87	paddr	163830644610532	PC	4207470	type	0
0x55612da4e500 87 0x55612da409c0 0x55612da53a40
cpu	0	set	1207	paddr	73944989642214	PC	4207559	type	0
0x55612db47b00 1207 0x55612da409c0 0x55612db48a40
cpu	0	set	1213	paddr	73944989642599	PC	4207559	type	0
0x55612db49060 1213 0x55612da409c0 0x55612db49f40
cpu	0	set	105	paddr	163830644611652	PC	4207464	type	0
0x55612da52520 105 0x55612da409c0 0x55612da57940
cpu	0	set	96	paddr	163830644611092	PC	4207450	type	0
0x55612da50510 96 0x55612da409c0 0x55612da559c0
cpu	0	set	193	paddr	205439036698706	PC	4207559	type	0
0x55612da65ea0 193 0x55612da409c0 0x55612da6ad40
cpu	0	set	213	paddr	205439036700012	PC	4207559	type	0
0x55612da6a5e0 213 0x55612da409c0 0x55612da6f340
cpu	0	set	214	paddr	205439036700093	PC	4207559	type	0
0x55612da6a970 214 0x55612da409c0 0x55612da6f6c0
cpu	0	set	228	paddr	205439036700991	PC	4207559	type	0
0x55612da6db50 228 0x55612da409c0 0x55612da727c0
cpu	0	set	88	paddr	163830644610560	PC	4207552	type	0
0x55612da4e890 88 0x55612da409c0 0x55612da53dc0
cpu	0	set	237	paddr	205439036701542	PC	4207559	type	0
0x55612da6fb60 237 0x55612da409c0 0x55612da74740
cpu	0	set	248	paddr	205439036702239	PC	4207559	type	0
0x55612da72290 248 0x55612da409c0 0x55612da76dc0
cpu	0	set	251	paddr	205439036702451	PC	4207559	type	0
0x55612da72d40 251 0x55612da409c0 0x55612da77840
cpu	0	set	216	paddr	152698466612784	PC	4207559	type	0
0x55612da6b090 216 0x55612da409c0 0x55612da6fdc0
cpu	0	set	239	paddr	152698466614216	PC	4207559	type	0
0x55612da70280 239 0x55612da409c0 0x55612da74e40
cpu	0	set	245	paddr	152698466614651	PC	4207559	type	0
0x55612da717e0 245 0x55612da409c0 0x55612da76340
cpu	0	set	255	paddr	152698466615276	PC	4207559	type	0
0x55612da73b80 255 0x55612da409c0 0x55612da78640
cpu	0	set	1876	paddr	141600704025916	PC	4207559	type	0
0x55612dbdca50 1876 0x55612da409c0 0x55612dbdafc0
cpu	0	set	1893	paddr	141600704026973	PC	4207559	type	0
0x55612dbe06e0 1893 0x55612da409c0 0x55612dbdeb40
cpu	0	set	1896	paddr	141600704027191	PC	4207559	type	0
0x55612dbe1190 1896 0x55612da409c0 0x55612dbdf5c0
cpu	0	set	1902	paddr	141600704027583	PC	4207559	type	0
0x55612dbe26f0 1902 0x55612da409c0 0x55612dbe0ac0
cpu	0	set	1760	paddr	54701040449552	PC	4207559	type	0
0x55612dbc2d10 1760 0x55612da409c0 0x55612dbc19c0
cpu	0	set	1761	paddr	54701040449622	PC	4207559	type	0
0x55612dbc30a0 1761 0x55612da409c0 0x55612dbc1d40
cpu	0	set	1769	paddr	54701040450154	PC	4207559	type	0
0x55612dbc4d20 1769 0x55612da409c0 0x55612dbc3940
cpu	0	set	258	paddr	122117675434125	PC	4207559	type	0
0x55612da74630 258 0x55612da409c0 0x55612da790c0
cpu	0	set	261	paddr	122117675434366	PC	4207559	type	0
0x55612da750e0 261 0x55612da409c0 0x55612da79b40
cpu	0	set	89	paddr	163830644610624	PC	4207552	type	0
0x55612da4ec20 89 0x55612da409c0 0x55612da54140
cpu	0	set	263	paddr	122117675434483	PC	4207559	type	0
0x55612da75800 263 0x55612da409c0 0x55612da7a240
cpu	0	set	282	paddr	122117675435674	PC	4207559	type	0
0x55612da79bb0 282 0x55612da409c0 0x55612da7e4c0
cpu	0	set	308	paddr	122117675437332	PC	4207559	type	0
0x55612da7f850 308 0x55612da409c0 0x55612da83fc0
cpu	0	set	853	paddr	133213193033048	PC	4207559	type	0
0x55612daf8de0 853 0x55612da409c0 0x55612dafb340
cpu	0	set	775	paddr	86587736637907	PC	4207559	type	0
0x55612dae7800 775 0x55612da409c0 0x55612daea240
cpu	0	set	777	paddr	86587736638023	PC	4207559	type	0
0x55612dae7f20 777 0x55612da409c0 0x55612daea940
cpu	0	set	800	paddr	86587736639524	PC	4207559	type	0
0x55612daed110 800 0x55612da409c0 0x55612daef9c0
cpu	0	set	582	paddr	63292698825139	PC	4207559	type	0
0x55612dabc870 582 0x55612da409c0 0x55612dabfec0
cpu	0	set	603	paddr	63292698826495	PC	4207559	type	0
0x55612dac1340 603 0x55612da409c0 0x55612dac4840
cpu	0	set	607	paddr	63292698826717	PC	4207559	type	0
0x55612dac2180 607 0x55612da409c0 0x55612dac5640
cpu	0	set	1229	paddr	226983942763371	PC	4207559	type	0
0x55612db4c960 1229 0x55612da409c0 0x55612db4d740
cpu	0	set	264	paddr	92671646122530	PC	4207559	type	0
0x55612da75b90 264 0x55612da409c0 0x55612da7a5c0
cpu	0	set	304	paddr	92671646125079	PC	4207559	type	0
0x55612da7ea10 304 0x55612da409c0 0x55612da831c0
cpu	0	set	361	paddr	166682012703352	PC	4207559	type	0
0x55612da8b520 361 0x55612da409c0 0x55612da8f940
cpu	0	set	368	paddr	166682012703746	PC	4207559	type	0
0x55612da8ce10 368 0x55612da409c0 0x55612da911c0
cpu	0	set	1388	paddr	156888415034158	PC	4207559	type	0
0x55612db6ffd0 1388 0x55612da409c0 0x55612db703c0
cpu	0	set	90	paddr	163830644610688	PC	4207552	type	0
0x55612da4efb0 90 0x55612da409c0 0x55612da544c0
cpu	0	set	1400	paddr	156888415034904	PC	4207559	type	0
0x55612db72a90 1400 0x55612da409c0 0x55612db72dc0
cpu	0	set	1402	paddr	156888415035037	PC	4207559	type	0
0x55612db731b0 1402 0x55612da409c0 0x55612db734c0
cpu	0	set	143	paddr	52126052787140	PC	4207559	type	0
0x55612da5ac80 143 0x55612da409c0 0x55612da5fe40
cpu	0	set	151	paddr	52126052787681	PC	4207559	type	0
0x55612da5c900 151 0x55612da409c0 0x55612da61a40
cpu	0	set	155	paddr	52126052787957	PC	4207559	type	0
0x55612da5d740 155 0x55612da409c0 0x55612da62840
cpu	0	set	163	paddr	52126052788466	PC	4207559	type	0
0x55612da5f3c0 163 0x55612da409c0 0x55612da64440
cpu	0	set	164	paddr	52126052788520	PC	4207559	type	0
0x55612da5f750 164 0x55612da409c0 0x55612da647c0
cpu	0	set	166	paddr	52126052788629	PC	4207559	type	0
0x55612da5fe70 166 0x55612da409c0 0x55612da64ec0
cpu	0	set	168	paddr	52126052788794	PC	4207559	type	0
0x55612da60590 168 0x55612da409c0 0x55612da655c0
cpu	0	set	1959	paddr	133386046007791	PC	4207559	type	0
0x55612dbef200 1959 0x55612da409c0 0x55612dbed240
cpu	0	set	1929	paddr	218394628448858	PC	4207559	type	0
0x55612dbe8720 1929 0x55612da409c0 0x55612dbe6940
cpu	0	set	1942	paddr	218394628449705	PC	4207559	type	0
0x55612dbeb570 1942 0x55612da409c0 0x55612dbe96c0
cpu	0	set	1951	paddr	174857139251189	PC	4207559	type	0
0x55612dbed580 1951 0x55612da409c0 0x55612dbeb640
cpu	0	set	72	paddr	234197937558039	PC	4207559	type	0
0x55612da4af90 72 0x55612da409c0 0x55612da505c0
cpu	0	set	88	paddr	234197937559084	PC	4207559	type	0
0x55612da4e890 88 0x55612da409c0 0x55612da53dc0
cpu	0	set	92	paddr	234197937559315	PC	4207559	type	0
0x55612da4f6d0 92 0x55612da409c0 0x55612da54bc0
cpu	0	set	91	paddr	163830644610752	PC	4207552	type	0
0x55612da4f340 91 0x55612da409c0 0x55612da54840
cpu	0	set	95	paddr	234197937559547	PC	4207559	type	0
0x55612da50180 95 0x55612da409c0 0x55612da55640
cpu	0	set	132	paddr	103663423201587	PC	4207559	type	0
0x55612da58550 132 0x55612da409c0 0x55612da5d7c0
cpu	0	set	135	paddr	103663423201789	PC	4207559	type	0
0x55612da59000 135 0x55612da409c0 0x55612da5e240
cpu	0	set	145	paddr	103663423202412	PC	4207559	type	0
0x55612da5b3a0 145 0x55612da409c0 0x55612da60540
cpu	0	set	163	paddr	103663423203552	PC	4207559	type	0
0x55612da5f3c0 163 0x55612da409c0 0x55612da64440
cpu	0	set	555	paddr	267562476407545	PC	4207559	type	0
0x55612dab6840 555 0x55612da409c0 0x55612daba040
cpu	0	set	573	paddr	267562476408663	PC	4207559	type	0
0x55612daba860 573 0x55612da409c0 0x55612dabdf40
cpu	0	set	1808	paddr	89613953123338	PC	4207559	type	0
0x55612dbcd810 1808 0x55612da409c0 0x55612dbcc1c0
cpu	0	set	1812	paddr	89613953123584	PC	4207559	type	0
0x55612dbce650 1812 0x55612da409c0 0x55612dbccfc0
cpu	0	set	1822	paddr	89613953124268	PC	4207559	type	0
0x55612dbd09f0 1822 0x55612da409c0 0x55612dbcf2c0
cpu	0	set	1928	paddr	259004453347887	PC	4207559	type	0
0x55612dbe8390 1928 0x55612da409c0 0x55612dbe65c0
cpu	0	set	1971	paddr	259004453350594	PC	4207559	type	0
0x55612dbf1cc0 1971 0x55612da409c0 0x55612dbefc40
cpu	0	set	1522	paddr	58002040126654	PC	4207559	type	0
0x55612db8dd30 1522 0x55612da409c0 0x55612db8d8c0
cpu	0	set	1676	paddr	147372388754197	PC	4207559	type	0
0x55612dbb01d0 1676 0x55612da409c0 0x55612dbaf3c0
cpu	0	set	1726	paddr	147372388757428	PC	4207559	type	0
0x55612dbbb3f0 1726 0x55612da409c0 0x55612dbba2c0
cpu	0	set	92	paddr	163830644610816	PC	4207552	type	0
0x55612da4f6d0 92 0x55612da409c0 0x55612da54bc0
cpu	0	set	222	paddr	153144266078129	PC	4207559	type	0
0x55612da6c5f0 222 0x55612da409c0 0x55612da712c0
cpu	0	set	243	paddr	153144266079474	PC	4207559	type	0
0x55612da710c0 243 0x55612da409c0 0x55612da75c40
cpu	0	set	1473	paddr	139365588103235	PC	4207559	type	0
0x55612db82ea0 1473 0x55612da409c0 0x55612db82d40
cpu	0	set	1483	paddr	139365588103881	PC	4207559	type	0
0x55612db85240 1483 0x55612da409c0 0x55612db85040
cpu	0	set	1521	paddr	139365588106306	PC	4207559	type	0
0x55612db8d9a0 1521 0x55612da409c0 0x55612db8d540
cpu	0	set	1415	paddr	141772134769122	PC	4207559	type	0
0x55612db76000 1415 0x55612da409c0 0x55612db76240
cpu	0	set	1437	paddr	141772134770519	PC	4207559	type	0
0x55612db7ae60 1437 0x55612da409c0 0x55612db7af40
cpu	0	set	1450	paddr	141772134771379	PC	4207559	type	0
0x55612db7dcb0 1450 0x55612da409c0 0x55612db7dcc0
cpu	0	set	817	paddr	113148469365844	PC	4207559	type	0
0x55612daf0da0 817 0x55612da409c0 0x55612daf3540
cpu	0	set	1786	paddr	204717285031604	PC	4207559	type	0
0x55612dbc89b0 1786 0x55612da409c0 0x55612dbc74c0
cpu	0	set	1995	paddr	244300774634212	PC	4207559	type	0
0x55612dbf7240 1995 0x55612da409c0 0x55612dbf5040
cpu	0	set	2013	paddr	244300774635369	PC	4207559	type	0
0x55612dbfb260 2013 0x55612da409c0 0x55612dbf8f40
cpu	0	set	2020	paddr	244300774635811	PC	4207559	type	0
0x55612dbfcb50 2020 0x55612da409c0 0x55612dbfa7c0
cpu	0	set	2021	paddr	244300774635881	PC	4207559	type	0
0x55612dbfcee0 2021 0x55612da409c0 0x55612dbfab40
cpu	0	set	2028	paddr	244300774636319	PC	4207559	type	0
0x55612dbfe7d0 2028 0x55612da409c0 0x55612dbfc3c0
cpu	0	set	2030	paddr	244300774636419	PC	4207559	type	0
0x55612dbfeef0 2030 0x55612da409c0 0x55612dbfcac0
cpu	0	set	93	paddr	163830644610880	PC	4207552	type	0
0x55612da4fa60 93 0x55612da409c0 0x55612da54f40
cpu	0	set	2037	paddr	244300774636915	PC	4207559	type	0
0x55612dc007e0 2037 0x55612da409c0 0x55612dbfe340
cpu	0	set	2038	paddr	244300774636985	PC	4207559	type	0
0x55612dc00b70 2038 0x55612da409c0 0x55612dbfe6c0
cpu	0	set	1817	paddr	122563417458272	PC	4207559	type	0
0x55612dbcf820 1817 0x55612da409c0 0x55612dbce140
cpu	0	set	1824	paddr	122563417458746	PC	4207559	type	0
0x55612dbd1110 1824 0x55612da409c0 0x55612dbcf9c0
cpu	0	set	1855	paddr	122563417460699	PC	4207559	type	0
0x55612dbd7f80 1855 0x55612da409c0 0x55612dbd6640
cpu	0	set	832	paddr	170736512978960	PC	4207559	type	0
0x55612daf4310 832 0x55612da409c0 0x55612daf69c0
cpu	0	set	860	paddr	170736512980742	PC	4207559	type	0
0x55612dafa6d0 860 0x55612da409c0 0x55612dafcbc0
cpu	0	set	880	paddr	170736512982032	PC	4207559	type	0
0x55612dafee10 880 0x55612da409c0 0x55612db011c0
cpu	0	set	5	paddr	173794543796554	PC	4207559	type	0
0x55612da3c0e0 5 0x55612da409c0 0x55612da41b40
cpu	0	set	39	paddr	173794543798754	PC	4207559	type	0
0x55612da43a00 39 0x55612da409c0 0x55612da49240
cpu	0	set	61	paddr	173794543800144	PC	4207559	type	0
0x55612da48860 61 0x55612da409c0 0x55612da4df40
cpu	0	set	1039	paddr	84251861779395	PC	4207559	type	0
0x55612db22480 1039 0x55612da409c0 0x55612db23e40
cpu	0	set	1053	paddr	84251861780318	PC	4207559	type	0
0x55612db25660 1053 0x55612da409c0 0x55612db26f40
cpu	0	set	1074	paddr	84251861781694	PC	4207559	type	0
0x55612db2a130 1074 0x55612da409c0 0x55612db2b8c0
cpu	0	set	1077	paddr	84251861781832	PC	4207559	type	0
0x55612db2abe0 1077 0x55612da409c0 0x55612db2c340
cpu	0	set	1221	paddr	105830201241934	PC	4207559	type	0
0x55612db4ace0 1221 0x55612da409c0 0x55612db4bb40
cpu	0	set	94	paddr	163830644610944	PC	4207552	type	0
0x55612da4fdf0 94 0x55612da409c0 0x55612da552c0
cpu	0	set	1268	paddr	105830201244954	PC	4207559	type	0
0x55612db55450 1268 0x55612da409c0 0x55612db55fc0
cpu	0	set	1814	paddr	260000559777156	PC	4207559	type	0
0x55612dbced70 1814 0x55612da409c0 0x55612dbcd6c0
cpu	0	set	1835	paddr	260000559778545	PC	4207559	type	0
0x55612dbd3840 1835 0x55612da409c0 0x55612dbd2040
cpu	0	set	850	paddr	151117672273040	PC	4207559	type	0
0x55612daf8330 850 0x55612da409c0 0x55612dafa8c0
cpu	0	set	867	paddr	151117672274172	PC	4207559	type	0
0x55612dafbfc0 867 0x55612da409c0 0x55612dafe440
cpu	0	set	873	paddr	151117672274530	PC	4207559	type	0
0x55612dafd520 873 0x55612da409c0 0x55612daff940
cpu	0	set	1257	paddr	167437146208851	PC	4207559	type	0
0x55612db52d20 1257 0x55612da409c0 0x55612db53940
cpu	0	set	533	paddr	59308544656724	PC	4207559	type	0
0x55612dab19e0 533 0x55612da409c0 0x55612dab5340
cpu	0	set	537	paddr	59308544657017	PC	4207559	type	0
0x55612dab2820 537 0x55612da409c0 0x55612dab6140
cpu	0	set	548	paddr	59308544657706	PC	4207559	type	0
0x55612dab4f50 548 0x55612da409c0 0x55612dab87c0
cpu	0	set	856	paddr	42333963867651	PC	4207559	type	0
0x55612daf9890 856 0x55612da409c0 0x55612dafbdc0
cpu	0	set	870	paddr	42333963868567	PC	4207559	type	0
0x55612dafca70 870 0x55612da409c0 0x55612dafeec0
cpu	0	set	875	paddr	42333963868924	PC	4207559	type	0
0x55612dafdc40 875 0x55612da409c0 0x55612db00040
cpu	0	set	879	paddr	42333963869135	PC	4207559	type	0
0x55612dafea80 879 0x55612da409c0 0x55612db00e40
cpu	0	set	1606	paddr	63051338584477	PC	4207559	type	0
0x55612dba0870 1606 0x55612da409c0 0x55612db9fec0
cpu	0	set	1269	paddr	184618014817644	PC	4207559	type	0
0x55612db557e0 1269 0x55612da409c0 0x55612db56340
cpu	0	set	95	paddr	163830644611008	PC	4207552	type	0
0x55612da50180 95 0x55612da409c0 0x55612da55640
cpu	0	set	1272	paddr	184618014817812	PC	4207559	type	0
0x55612db56290 1272 0x55612da409c0 0x55612db56dc0
cpu	0	set	1354	paddr	16255534453436	PC	4207559	type	0
0x55612db686b0 1354 0x55612da409c0 0x55612db68cc0
cpu	0	set	1379	paddr	16255534455019	PC	4207559	type	0
0x55612db6dfc0 1379 0x55612da409c0 0x55612db6e440
cpu	0	set	1386	paddr	16255534455433	PC	4207559	type	0
0x55612db6f8b0 1386 0x55612da409c0 0x55612db6fcc0
cpu	0	set	1034	paddr	76590141211268	PC	4207559	type	0
0x55612db212b0 1034 0x55612da409c0 0x55612db22cc0
cpu	0	set	1850	paddr	73839737163443	PC	4207559	type	0
0x55612dbd6db0 1850 0x55612da409c0 0x55612dbd54c0
cpu	0	set	729	paddr	110641911871067	PC	4207559	type	0
0x55612dadd420 729 0x55612da409c0 0x55612dae0140
cpu	0	set	746	paddr	110641911872153	PC	4207559	type	0
0x55612dae10b0 746 0x55612da409c0 0x55612dae3cc0
cpu	0	set	1600	paddr	227292320862232	PC	4207559	type	0
0x55612db9f310 1600 0x55612da409c0 0x55612db9e9c0
cpu	0	set	1603	paddr	227292320862446	PC	4207559	type	0
0x55612db9fdc0 1603 0x55612da409c0 0x55612db9f440
cpu	0	set	1615	paddr	227292320863173	PC	4207559	type	0
0x55612dba2880 1615 0x55612da409c0 0x55612dba1e40
cpu	0	set	1866	paddr	93256472056503	PC	4207559	type	0
0x55612dbda6b0 1866 0x55612da409c0 0x55612dbd8cc0
cpu	0	set	1939	paddr	233854673216747	PC	4207559	type	0
0x55612dbeaac0 1939 0x55612da409c0 0x55612dbe8c40
cpu	0	set	530	paddr	72156687664314	PC	4207559	type	0
0x55612dab0f30 530 0x55612da409c0 0x55612dab48c0
cpu	0	set	204	paddr	93424806277902	PC	4207559	type	0
0x55612da685d0 204 0x55612da409c0 0x55612da6d3c0
cpu	0	set	1688	paddr	12060354520589	PC	4207559	type	0
0x55612dbb2c90 1688 0x55612da409c0 0x55612dbb1dc0
cpu	0	set	1699	paddr	12060354521281	PC	4207559	type	0
0x55612dbb53c0 1699 0x55612da409c0 0x55612dbb4440
cpu	0	set	1709	paddr	12060354521947	PC	4207559	type	0
0x55612dbb7760 1709 0x55612da409c0 0x55612dbb6740
cpu	0	set	475	paddr	211624437118677	PC	4207559	type	0
0x55612daa4b40 475 0x55612da409c0 0x55612daa8840
cpu	0	set	494	paddr	211624437119916	PC	4207559	type	0
0x55612daa8ef0 494 0x55612da409c0 0x55612daacac0
cpu	0	set	1157	paddr	177678284038509	PC	4207559	type	0
0x55612db3c8e0 1157 0x55612da409c0 0x55612db3db40
cpu	0	set	1172	paddr	177678284039486	PC	4207559	type	0
0x55612db3fe50 1172 0x55612da409c0 0x55612db40fc0
cpu	0	set	1192	paddr	177678284040752	PC	4207559	type	0
0x55612db44590 1192 0x55612da409c0 0x55612db455c0
cpu	0	set	1199	paddr	177678284041198	PC	4207559	type	0
0x55612db45e80 1199 0x55612da409c0 0x55612db46e40
cpu	0	set	733	paddr	166716193945429	PC	4207559	type	0
0x55612dade260 733 0x55612da409c0 0x55612dae0f40
cpu	0	set	736	paddr	166716193945653	PC	4207559	type	0
0x55612daded10 736 0x55612da409c0 0x55612dae19c0
cpu	0	set	512	paddr	185577662349321	PC	4207559	type	0
0x55612daacf10 512 0x55612da409c0 0x55612dab09c0
cpu	0	set	540	paddr	185577662351140	PC	4207559	type	0
0x55612dab32d0 540 0x55612da409c0 0x55612dab6bc0
cpu	0	set	567	paddr	185577662352864	PC	4207559	type	0
0x55612dab9300 567 0x55612da409c0 0x55612dabca40
cpu	0	set	1815	paddr	194546929092085	PC	4207559	type	0
0x55612dbcf100 1815 0x55612da409c0 0x55612dbcda40
cpu	0	set	97	paddr	163830644611136	PC	4207552	type	0
0x55612da508a0 97 0x55612da409c0 0x55612da55d40
cpu	0	set	1672	paddr	233373827965456	PC	4207559	type	0
0x55612dbaf390 1672 0x55612da409c0 0x55612dbae5c0
cpu	0	set	1678	paddr	233373827965871	PC	4207559	type	0
0x55612dbb08f0 1678 0x55612da409c0 0x55612dbafac0
cpu	0	set	1710	paddr	233373827967906	PC	4207559	type	0
0x55612dbb7af0 1710 0x55612da409c0 0x55612dbb6ac0
cpu	0	set	406	paddr	266118950708643	PC	4207559	type	0
0x55612da95570 406 0x55612da409c0 0x55612da996c0
cpu	0	set	419	paddr	266118950709465	PC	4207559	type	0
0x55612da983c0 419 0x55612da409c0 0x55612da9c440
cpu	0	set	422	paddr	266118950709665	PC	4207559	type	0
0x55612da98e70 422 0x55612da409c0 0x55612da9cec0
cpu	0	set	425	paddr	266118950709842	PC	4207559	type	0
0x55612da99920 425 0x55612da409c0 0x55612da9d940
cpu	0	set	440	paddr	266118950710804	PC	4207559	type	0
0x55612da9ce90 440 0x55612da409c0 0x55612daa0dc0
cpu	0	set	442	paddr	266118950710920	PC	4207559	type	0
0x55612da9d5b0 442 0x55612da409c0 0x55612daa14c0
cpu	0	set	1368	paddr	37727083255343	PC	4207559	type	0
0x55612db6b890 1368 0x55612da409c0 0x55612db6bdc0
cpu	0	set	1385	paddr	37727083256442	PC	4207559	type	0
0x55612db6f520 1385 0x55612da409c0 0x55612db6f940
cpu	0	set	493	paddr	123146529962817	PC	4207559	type	0
0x55612daa8b60 493 0x55612da409c0 0x55612daac740
cpu	0	set	502	paddr	123146529963430	PC	4207559	type	0
0x55612daaab70 502 0x55612da409c0 0x55612daae6c0
cpu	0	set	1323	paddr	105796067609335	PC	4207559	type	0
0x55612db61840 1323 0x55612da409c0 0x55612db62040
cpu	0	set	537	paddr	62126051329651	PC	4207559	type	0
0x55612dab2820 537 0x55612da409c0 0x55612dab6140
cpu	0	set	565	paddr	62126051331408	PC	4207559	type	0
0x55612dab8be0 565 0x55612da409c0 0x55612dabc340
cpu	0	set	566	paddr	62126051331466	PC	4207559	type	0
0x55612dab8f70 566 0x55612da409c0 0x55612dabc6c0
cpu	0	set	98	paddr	163830644611200	PC	4207552	type	0
0x55612da50c30 98 0x55612da409c0 0x55612da560c0
cpu	0	set	9	paddr	178705920557649	PC	4207559	type	0
0x55612da3cf20 9 0x55612da409c0 0x55612da42940
cpu	0	set	11	paddr	178705920557770	PC	4207559	type	0
0x55612da3d640 11 0x55612da409c0 0x55612da43040
cpu	0	set	579	paddr	233852693942509	PC	4207559	type	0
0x55612dabbdc0 579 0x55612da409c0 0x55612dabf440
cpu	0	set	591	paddr	233852693943284	PC	4207559	type	0
0x55612dabe880 591 0x55612da409c0 0x55612dac1e40
cpu	0	set	605	paddr	233852693944163	PC	4207559	type	0
0x55612dac1a60 605 0x55612da409c0 0x55612dac4f40
cpu	0	set	639	paddr	233852693946309	PC	4207559	type	0
0x55612dac9380 639 0x55612da409c0 0x55612dacc640
cpu	0	set	1045	paddr	79305173828988	PC	4207559	type	0
0x55612db239e0 1045 0x55612da409c0 0x55612db25340
cpu	0	set	1063	paddr	79305173830100	PC	4207559	type	0
0x55612db27a00 1063 0x55612da409c0 0x55612db29240
cpu	0	set	1064	paddr	79305173830146	PC	4207559	type	0
0x55612db27d90 1064 0x55612da409c0 0x55612db295c0
cpu	0	set	1065	paddr	79305173830271	PC	4207559	type	0
0x55612db28120 1065 0x55612da409c0 0x55612db29940
cpu	0	set	1038	paddr	103151729836975	PC	4207559	type	0
0x55612db220f0 1038 0x55612da409c0 0x55612db23ac0
cpu	0	set	1053	paddr	103151729837936	PC	4207559	type	0
0x55612db25660 1053 0x55612da409c0 0x55612db26f40
cpu	0	set	1472	paddr	231757951103008	PC	4207559	type	0
0x55612db82b10 1472 0x55612da409c0 0x55612db829c0
cpu	0	set	1479	paddr	231757951103437	PC	4207559	type	0
0x55612db84400 1479 0x55612da409c0 0x55612db84240
cpu	0	set	1487	paddr	231757951103999	PC	4207559	type	0
0x55612db86080 1487 0x55612da409c0 0x55612db85e40
cpu	0	set	1494	paddr	231757951104419	PC	4207559	type	0
0x55612db87970 1494 0x55612da409c0 0x55612db876c0
cpu	0	set	99	paddr	163830644611264	PC	4207552	type	0
0x55612da50fc0 99 0x55612da409c0 0x55612da56440
cpu	0	set	1552	paddr	273745249272854	PC	4207559	type	0
0x55612db94810 1552 0x55612da409c0 0x55612db941c0
cpu	0	set	1590	paddr	273745249275296	PC	4207559	type	0
0x55612db9cf70 1590 0x55612da409c0 0x55612db9c6c0
cpu	0	set	1522	paddr	107136427981981	PC	4207559	type	0
0x55612db8dd30 1522 0x55612da409c0 0x55612db8d8c0
cpu	0	set	779	paddr	93733598970565	PC	4207559	type	0
0x55612dae8640 779 0x55612da409c0 0x55612daeb040
cpu	0	set	260	paddr	128987567505692	PC	4207559	type	0
0x55612da74d50 260 0x55612da409c0 0x55612da797c0
cpu	0	set	265	paddr	128987567506016	PC	4207559	type	0
0x55612da75f20 265 0x55612da409c0 0x55612da7a940
cpu	0	set	1958	paddr	126377092311458	PC	4207559	type	0
0x55612dbeee70 1958 0x55612da409c0 0x55612dbecec0
cpu	0	set	1966	paddr	126377092311948	PC	4207559	type	0
0x55612dbf0af0 1966 0x55612da409c0 0x55612dbeeac0
cpu	0	set	1969	paddr	126377092312166	PC	4207559	type	0
0x55612dbf15a0 1969 0x55612da409c0 0x55612dbef540
cpu	0	set	1738	paddr	80886041784996	PC	4207559	type	0
0x55612dbbdeb0 1738 0x55612da409c0 0x55612dbbccc0
cpu	0	set	1665	paddr	48794029236315	PC	4207559	type	0
0x55612dbadaa0 1665 0x55612da409c0 0x55612dbacd40
cpu	0	set	1666	paddr	48794029236357	PC	4207559	type	0
0x55612dbade30 1666 0x55612da409c0 0x55612dbad0c0
cpu	0	set	1667	paddr	48794029236462	PC	4207559	type	0
0x55612dbae1c0 1667 0x55612da409c0 0x55612dbad440
cpu	0	set	1668	paddr	48794029236506	PC	4207559	type	0
0x55612dbae550 1668 0x55612da409c0 0x55612dbad7c0
cpu	0	set	1680	paddr	48794029237298	PC	4207559	type	0
0x55612dbb1010 1680 0x55612da409c0 0x55612dbb01c0
cpu	0	set	100	paddr	163830644611328	PC	4207552	type	0
0x55612da51350 100 0x55612da409c0 0x55612da567c0
cpu	0	set	1722	paddr	48794029239980	PC	4207559	type	0
0x55612dbba5b0 1722 0x55612da409c0 0x55612dbb94c0
cpu	0	set	1396	paddr	198977552604432	PC	4207559	type	0
0x55612db71c50 1396 0x55612da409c0 0x55612db71fc0
cpu	0	set	1856	paddr	204028273348622	PC	4207559	type	0
0x55612dbd8310 1856 0x55612da409c0 0x55612dbd69c0
cpu	0	set	1864	paddr	204028273349124	PC	4207559	type	0
0x55612dbd9f90 1864 0x55612da409c0 0x55612dbd85c0
cpu	0	set	1881	paddr	204028273350268	PC	4207559	type	0
0x55612dbddc20 1881 0x55612da409c0 0x55612dbdc140
cpu	0	set	1884	paddr	204028273350460	PC	4207559	type	0
0x55612dbde6d0 1884 0x55612da409c0 0x55612dbdcbc0
cpu	0	set	1896	paddr	204028273351203	PC	4207559	type	0
0x55612dbe1190 1896 0x55612da409c0 0x55612dbdf5c0
cpu	0	set	1874	paddr	89198798296252	PC	4207559	type	0
0x55612dbdc330 1874 0x55612da409c0 0x55612dbda8c0
cpu	0	set	1892	paddr	89198798297384	PC	4207559	type	0
0x55612dbe0350 1892 0x55612da409c0 0x55612dbde7c0
cpu	0	set	1910	paddr	89198798298552	PC	4207559	type	0
0x55612dbe4370 1910 0x55612da409c0 0x55612dbe26c0
cpu	0	set	987	paddr	19451066382037	PC	4207559	type	0
0x55612db16b40 987 0x55612da409c0 0x55612db18840
cpu	0	set	1022	paddr	19451066384315	PC	4207559	type	0
0x55612db1e7f0 1022 0x55612da409c0 0x55612db202c0
cpu	0	set	1674	paddr	69822958772912	PC	4207559	type	0
0x55612dbafab0 1674 0x55612da409c0 0x55612dbaecc0
cpu	0	set	1693	paddr	69822958774114	PC	4207559	type	0
0x55612dbb3e60 1693 0x55612da409c0 0x55612dbb2f40
cpu	0	set	1703	paddr	69822958774725	PC	4207559	type	0
0x55612dbb6200 1703 0x55612da409c0 0x55612dbb5240
cpu	0	set	1492	paddr	161354593563935	PC	4207559	type	0
0x55612db87250 1492 0x55612da409c0 0x55612db86fc0
cpu	0	set	101	paddr	163830644611392	PC	4207552	type	0
0x55612da516e0 101 0x55612da409c0 0x55612da56b40
cpu	0	set	1508	paddr	161354593564968	PC	4207559	type	0
0x55612db8ab50 1508 0x55612da409c0 0x55612db8a7c0
cpu	0	set	718	paddr	191110969996163	PC	4207559	type	0
0x55612dadacf0 718 0x55612da409c0 0x55612daddac0
cpu	0	set	0	paddr	221177277317179	PC	4207559	type	0
0x55612da3af10 0 0x55612da409c0 0x55612da409c0
cpu	0	set	23	paddr	221177277318611	PC	4207559	type	0
0x55612da40100 23 0x55612da409c0 0x55612da45a40
cpu	0	set	35	paddr	221177277319423	PC	4207559	type	0
0x55612da42bc0 35 0x55612da409c0 0x55612da48440
cpu	0	set	38	paddr	221177277319605	PC	4207559	type	0
0x55612da43670 38 0x55612da409c0 0x55612da48ec0
cpu	0	set	1225	paddr	33504840725081	PC	4207559	type	0
0x55612db4bb20 1225 0x55612da409c0 0x55612db4c940
cpu	0	set	1240	paddr	33504840726069	PC	4207559	type	0
0x55612db4f090 1240 0x55612da409c0 0x55612db4fdc0
cpu	0	set	711	paddr	83564644708854	PC	4207559	type	0
0x55612dad9400 711 0x55612da409c0 0x55612dadc240
cpu	0	set	730	paddr	255742252332714	PC	4207559	type	0
0x55612dadd7b0 730 0x55612da409c0 0x55612dae04c0
cpu	0	set	741	paddr	255742252333385	PC	4207559	type	0
0x55612dadfee0 741 0x55612da409c0 0x55612dae2b40
cpu	0	set	747	paddr	255742252333817	PC	4207559	type	0
0x55612dae1440 747 0x55612da409c0 0x55612dae4040
cpu	0	set	1691	paddr	118370821318346	PC	4207559	type	0
0x55612dbb3740 1691 0x55612da409c0 0x55612dbb2840
cpu	0	set	1703	paddr	118370821319133	PC	4207559	type	0
0x55612dbb6200 1703 0x55612da409c0 0x55612dbb5240
cpu	0	set	1713	paddr	118370821319795	PC	4207559	type	0
0x55612dbb85a0 1713 0x55612da409c0 0x55612dbb7540
cpu	0	set	1720	paddr	118370821320211	PC	4207559	type	0
0x55612dbb9e90 1720 0x55612da409c0 0x55612dbb8dc0
cpu	0	set	102	paddr	163830644611456	PC	4207552	type	0
0x55612da51a70 102 0x55612da409c0 0x55612da56ec0
cpu	0	set	705	paddr	64633830158459	PC	4207559	type	0
0x55612dad7ea0 705 0x55612da409c0 0x55612dadad40
cpu	0	set	711	paddr	64633830158808	PC	4207559	type	0
0x55612dad9400 711 0x55612da409c0 0x55612dadc240
cpu	0	set	718	paddr	64633830159295	PC	4207559	type	0
0x55612dadacf0 718 0x55612da409c0 0x55612daddac0
cpu	0	set	384	paddr	39307831435279	PC	4207559	type	0
0x55612da90710 384 0x55612da409c0 0x55612da949c0
cpu	0	set	416	paddr	39307831437338	PC	4207559	type	0
0x55612da97910 416 0x55612da409c0 0x55612da9b9c0
cpu	0	set	329	paddr	253919015096956	PC	4207559	type	0
0x55612da84320 329 0x55612da409c0 0x55612da88940
cpu	0	set	349	paddr	253919015098190	PC	4207559	type	0
0x55612da88a60 349 0x55612da409c0 0x55612da8cf40
cpu	0	set	908	paddr	83872726311717	PC	4207559	type	0
0x55612db051d0 908 0x55612da409c0 0x55612db073c0
cpu	0	set	914	paddr	83872726312087	PC	4207559	type	0
0x55612db06730 914 0x55612da409c0 0x55612db088c0
cpu	0	set	928	paddr	83872726312963	PC	4207559	type	0
0x55612db09910 928 0x55612da409c0 0x55612db0b9c0
cpu	0	set	938	paddr	83872726313632	PC	4207559	type	0
0x55612db0bcb0 938 0x55612da409c0 0x55612db0dcc0
cpu	0	set	954	paddr	83872726314686	PC	4207559	type	0
0x55612db0f5b0 954 0x55612da409c0 0x55612db114c0
cpu	0	set	95	paddr	164689685387213	PC	4207559	type	0
0x55612da50180 95 0x55612da409c0 0x55612da55640
cpu	0	set	326	paddr	87170743685554	PC	4207559	type	0
0x55612da83870 326 0x55612da409c0 0x55612da87ec0
cpu	0	set	1055	paddr	52812344395756	PC	4207559	type	0
0x55612db25d80 1055 0x55612da409c0 0x55612db27640
cpu	0	set	1057	paddr	52812344395892	PC	4207559	type	0
0x55612db264a0 1057 0x55612da409c0 0x55612db27d40
cpu	0	set	103	paddr	163830644611520	PC	4207552	type	0
0x55612da51e00 103 0x55612da409c0 0x55612da57240
cpu	0	set	173	paddr	199563836402511	PC	4207559	type	0
0x55612da61760 173 0x55612da409c0 0x55612da66740
cpu	0	set	184	paddr	199563836403229	PC	4207559	type	0
0x55612da63e90 184 0x55612da409c0 0x55612da68dc0
cpu	0	set	899	paddr	44188509855974	PC	4207559	type	0
0x55612db031c0 899 0x55612da409c0 0x55612db05440
cpu	0	set	906	paddr	44188509856406	PC	4207559	type	0
0x55612db04ab0 906 0x55612da409c0 0x55612db06cc0
cpu	0	set	916	paddr	44188509857072	PC	4207559	type	0
0x55612db06e50 916 0x55612da409c0 0x55612db08fc0
cpu	0	set	920	paddr	44188509857328	PC	4207559	type	0
0x55612db07c90 920 0x55612da409c0 0x55612db09dc0
cpu	0	set	934	paddr	44188509858214	PC	4207559	type	0
0x55612db0ae70 934 0x55612da409c0 0x55612db0cec0
cpu	0	set	941	paddr	44188509858674	PC	4207559	type	0
0x55612db0c760 941 0x55612da409c0 0x55612db0e740
cpu	0	set	956	paddr	44188509859615	PC	4207559	type	0
0x55612db0fcd0 956 0x55612da409c0 0x55612db11bc0
cpu	0	set	1235	paddr	97995676136702	PC	4207559	type	0
0x55612db4dec0 1235 0x55612da409c0 0x55612db4ec40
cpu	0	set	1098	paddr	214922481439383	PC	4207559	type	0
0x55612db2f6b0 1098 0x55612da409c0 0x55612db30cc0
cpu	0	set	1126	paddr	214922481441205	PC	4207559	type	0
0x55612db35a70 1126 0x55612da409c0 0x55612db36ec0
cpu	0	set	324	paddr	245297178235160	PC	4207559	type	0
0x55612da83150 324 0x55612da409c0 0x55612da877c0
cpu	0	set	333	paddr	245297178235758	PC	4207559	type	0
0x55612da85160 333 0x55612da409c0 0x55612da89740
cpu	0	set	347	paddr	245297178236637	PC	4207559	type	0
0x55612da88340 347 0x55612da409c0 0x55612da8c840
cpu	0	set	354	paddr	245297178237068	PC	4207559	type	0
0x55612da89c30 354 0x55612da409c0 0x55612da8e0c0
cpu	0	set	104	paddr	163830644611584	PC	4207552	type	0
0x55612da52190 104 0x55612da409c0 0x55612da575c0
cpu	0	set	10	paddr	72880832381590	PC	4207559	type	0
0x55612da3d2b0 10 0x55612da409c0 0x55612da42cc0
cpu	0	set	14	paddr	72880832381879	PC	4207559	type	0
0x55612da3e0f0 14 0x55612da409c0 0x55612da43ac0
cpu	0	set	26	paddr	72880832382617	PC	4207559	type	0
0x55612da40bb0 26 0x55612da409c0 0x55612da464c0
cpu	0	set	427	paddr	102395569138429	PC	4207559	type	0
0x55612da9a040 427 0x55612da409c0 0x55612da9e040
cpu	0	set	433	paddr	102395569138804	PC	4207559	type	0
0x55612da9b5a0 433 0x55612da409c0 0x55612da9f540
cpu	0	set	444	paddr	102395569139467	PC	4207559	type	0
0x55612da9dcd0 444 0x55612da409c0 0x55612daa1bc0
cpu	0	set	789	paddr	225436250850638	PC	4207559	type	0
0x55612daea9e0 789 0x55612da409c0 0x55612daed340
cpu	0	set	2034	paddr	254847299746975	PC	4207559	type	0
0x55612dbffd30 2034 0x55612da409c0 0x55612dbfd8c0
cpu	0	set	2035	paddr	254847299747063	PC	4207559	type	0
0x55612dc000c0 2035 0x55612da409c0 0x55612dbfdc40
cpu	0	set	1499	paddr	183413320152785	PC	4207559	type	0
0x55612db88b40 1499 0x55612da409c0 0x55612db88840
cpu	0	set	1500	paddr	183413320152841	PC	4207559	type	0
0x55612db88ed0 1500 0x55612da409c0 0x55612db88bc0
cpu	0	set	1524	paddr	183413320154390	PC	4207559	type	0
0x55612db8e450 1524 0x55612da409c0 0x55612db8dfc0
cpu	0	set	1530	paddr	183413320154796	PC	4207559	type	0
0x55612db8f9b0 1530 0x55612da409c0 0x55612db8f4c0
cpu	0	set	1688	paddr	63603941025315	PC	4207559	type	0
0x55612dbb2c90 1688 0x55612da409c0 0x55612dbb1dc0
cpu	0	set	1723	paddr	63603941027529	PC	4207559	type	0
0x55612dbba940 1723 0x55612da409c0 0x55612dbb9840
cpu	0	set	1073	paddr	140359900007509	PC	4207559	type	0
0x55612db29da0 1073 0x55612da409c0 0x55612db2b540
cpu	0	set	1158	paddr	73944989639052	PC	4207559	type	0
0x55612db3cc70 1158 0x55612da409c0 0x55612db3dec0
cpu	0	set	229	paddr	205439036700992	PC	4207559	type	0
0x55612da6dee0 229 0x55612da409c0 0x55612da72b40
cpu	0	set	1903	paddr	141600704027584	PC	4207559	type	0
0x55612dbe2a80 1903 0x55612da409c0 0x55612dbe0e40
cpu	0	set	604	paddr	63292698826496	PC	4207559	type	0
0x55612dac16d0 604 0x55612da409c0 0x55612dac4bc0
cpu	0	set	1066	paddr	79305173830272	PC	4207559	type	0
0x55612db284b0 1066 0x55612da409c0 0x55612db29cc0
cpu	0	set	1488	paddr	231757951104000	PC	4207559	type	0
0x55612db86410 1488 0x55612da409c0 0x55612db861c0
cpu	0	set	1669	paddr	48794029236544	PC	4207559	type	0
0x55612dbae8e0 1669 0x55612da409c0 0x55612dbadb40
cpu	0	set	36	paddr	221177277319424	PC	4207559	type	0
0x55612da42f50 36 0x55612da409c0 0x55612da487c0
cpu	0	set	719	paddr	64633830159296	PC	4207559	type	0
0x55612dadb080 719 0x55612da409c0 0x55612dadde40
cpu	0	set	262	paddr	122117675434368	PC	4207559	type	0
0x55612da75470 262 0x55612da409c0 0x55612da79ec0
cpu	0	set	1523	paddr	58002040126656	PC	4207559	type	0
0x55612db8e0c0 1523 0x55612da409c0 0x55612db8dc40
cpu	0	set	1075	paddr	84251861781696	PC	4207559	type	0
0x55612db2a4c0 1075 0x55612da409c0 0x55612db2bc40
cpu	0	set	1173	paddr	177678284039488	PC	4207559	type	0
0x55612db401e0 1173 0x55612da409c0 0x55612db41340
cpu	0	set	955	paddr	83872726314688	PC	4207559	type	0
0x55612db0f940 955 0x55612da409c0 0x55612db11840
cpu	0	set	1236	paddr	97995676136704	PC	4207559	type	0
0x55612db4e250 1236 0x55612da409c0 0x55612db4efc0
cpu	0	set	1170	paddr	224579032261768	PC	4207752	type	0
0x55612db3f730 1170 0x55612da409c0 0x55612db408c0
cpu	0	set	215	paddr	205439036700096	PC	4207559	type	0
0x55612da6ad00 215 0x55612da409c0 0x55612da6fa40
cpu	0	set	136	paddr	103663423201792	PC	4207559	type	0
0x55612da59390 136 0x55612da409c0 0x55612da5e5c0
cpu	0	set	428	paddr	102395569138432	PC	4207559	type	0
0x55612da9a3d0 428 0x55612da409c0 0x55612da9e3c0
cpu	0	set	1197	paddr	224579032263488	PC	4209472	type	0
0x55612db45760 1197 0x55612da409c0 0x55612db46740
cpu	0	set	1198	paddr	224579032263552	PC	4209536	type	0
0x55612db45af0 1198 0x55612da409c0 0x55612db46ac0
cpu	0	set	1199	paddr	224579032263619	PC	4209603	type	0
0x55612db45e80 1199 0x55612da409c0 0x55612db46e40
cpu	0	set	1200	paddr	224579032263682	PC	4209666	type	0
0x55612db46210 1200 0x55612da409c0 0x55612db471c0
cpu	0	set	1201	paddr	224579032263747	PC	4209731	type	0
0x55612db465a0 1201 0x55612da409c0 0x55612db47540
cpu	0	set	1202	paddr	224579032263808	PC	4209792	type	0
0x55612db46930 1202 0x55612da409c0 0x55612db478c0
cpu	0	set	1206	paddr	224579032264101	PC	4210085	type	0
0x55612db47770 1206 0x55612da409c0 0x55612db486c0
cpu	0	set	1207	paddr	224579032264131	PC	4210115	type	0
0x55612db47b00 1207 0x55612da409c0 0x55612db48a40
cpu	0	set	1208	paddr	224579032264194	PC	4210178	type	0
0x55612db47e90 1208 0x55612da409c0 0x55612db48dc0
cpu	0	set	1209	paddr	224579032264261	PC	4210245	type	0
0x55612db48220 1209 0x55612da409c0 0x55612db49140
cpu	0	set	1210	paddr	224579032264322	PC	4210306	type	0
0x55612db485b0 1210 0x55612da409c0 0x55612db494c0
cpu	0	set	1171	paddr	224579032261870	PC	4207854	type	0
0x55612db3fac0 1171 0x55612da409c0 0x55612db40c40
cpu	0	set	330	paddr	253919015096960	PC	4207559	type	0
0x55612da846b0 330 0x55612da409c0 0x55612da88cc0
cpu	0	set	1882	paddr	204028273350272	PC	4207559	type	0
0x55612dbddfb0 1882 0x55612da409c0 0x55612dbdc4c0
cpu	0	set	1355	paddr	16255534453440	PC	4207559	type	0
0x55612db68a40 1355 0x55612da409c0 0x55612db69040
cpu	0	set	1875	paddr	89198798296256	PC	4207559	type	0
0x55612dbdc6c0 1875 0x55612da409c0 0x55612dbdac40
cpu	0	set	876	paddr	42333963868928	PC	4207559	type	0
0x55612dafdfd0 876 0x55612da409c0 0x55612db003c0
cpu	0	set	1877	paddr	141600704025920	PC	4207559	type	0
0x55612dbdcde0 1877 0x55612da409c0 0x55612dbdb340
cpu	0	set	246	paddr	152698466614656	PC	4207559	type	0
0x55612da71b70 246 0x55612da409c0 0x55612da766c0
cpu	0	set	706	paddr	64633830158464	PC	4207559	type	0
0x55612dad8230 706 0x55612da409c0 0x55612dadb0c0
cpu	0	set	538	paddr	59308544657024	PC	4207559	type	0
0x55612dab2bb0 538 0x55612da409c0 0x55612dab64c0
cpu	0	set	748	paddr	255742252333824	PC	4207559	type	0
0x55612dae17d0 748 0x55612da409c0 0x55612dae43c0
cpu	0	set	1911	paddr	89198798298560	PC	4207559	type	0
0x55612dbe4700 1911 0x55612da409c0 0x55612dbe2a40
cpu	0	set	712	paddr	83564644708864	PC	4207559	type	0
0x55612dad9790 712 0x55612da409c0 0x55612dadc5c0
cpu	0	set	1172	paddr	224579032261891	PC	4207875	type	0
0x55612db3fe50 1172 0x55612da409c0 0x55612db40fc0
cpu	0	set	1214	paddr	224579032264635	PC	4210619	type	0
0x55612db493f0 1214 0x55612da409c0 0x55612db4a2c0
cpu	0	set	1215	paddr	224579032264643	PC	4210627	type	0
0x55612db49780 1215 0x55612da409c0 0x55612db4a640
cpu	0	set	1174	paddr	224579032262026	PC	4208010	type	0
0x55612db40570 1174 0x55612da409c0 0x55612db416c0
cpu	0	set	1454	paddr	3884277918595	PC	4205443	type	0
0x55612db7eaf0 1454 0x55612da409c0 0x55612db7eac0
cpu	0	set	1455	paddr	3884277918656	PC	4205504	type	0
0x55612db7ee80 1455 0x55612da409c0 0x55612db7ee40
cpu	0	set	1459	paddr	3884277918941	PC	4205789	type	0
0x55612db7fcc0 1459 0x55612da409c0 0x55612db7fc40
cpu	0	set	1196	paddr	224579032263440	PC	4209424	type	0
0x55612db453d0 1196 0x55612da409c0 0x55612db463c0
cpu	0	set	1954	paddr	274365599836332	PC	4208019	type	0
0x55612dbee030 1954 0x55612da409c0 0x55612dbec0c0
cpu	0	set	777	paddr	194235868430918	PC	4205475	type	0
0x55612dae7f20 777 0x55612da409c0 0x55612daea940
cpu	0	set	1861	paddr	118132267798892	PC	4205480	type	0
0x55612dbd94e0 1861 0x55612da409c0 0x55612dbd7b40
cpu	0	set	788	paddr	194235868431616	PC	4205475	type	0
0x55612daea650 788 0x55612da409c0 0x55612daecfc0
cpu	0	set	793	paddr	130396869019208	PC	4205480	type	0
0x55612daeb820 793 0x55612da409c0 0x55612daee140
cpu	0	set	1877	paddr	118132267799896	PC	4205480	type	0
0x55612dbdcde0 1877 0x55612da409c0 0x55612dbdb340
cpu	0	set	1339	paddr	16768683953890	PC	4205475	type	0
0x55612db65140 1339 0x55612da409c0 0x55612db65840
cpu	0	set	1913	paddr	118132267802184	PC	4205480	type	0
0x55612dbe4e20 1913 0x55612da409c0 0x55612dbe3140
cpu	0	set	1013	paddr	89030258785656	PC	4205475	type	0
0x55612db1c7e0 1013 0x55612da409c0 0x55612db1e340
cpu	0	set	145	paddr	193139846816872	PC	4205475	type	0
0x55612da5b3a0 145 0x55612da409c0 0x55612da60540
cpu	0	set	1769	paddr	128990516722302	PC	4205480	type	0
0x55612dbc4d20 1769 0x55612da409c0 0x55612dbc3940
cpu	0	set	1770	paddr	128990516722304	PC	4205519	type	0
0x55612dbc50b0 1770 0x55612da409c0 0x55612dbc3cc0
cpu	0	set	1965	paddr	192311614630768	PC	4205475	type	0
0x55612dbf0760 1965 0x55612da409c0 0x55612dbee740
cpu	0	set	1819	paddr	86176872646344	PC	4205480	type	0
0x55612dbcff40 1819 0x55612da409c0 0x55612dbce840
cpu	0	set	2038	paddr	277115381874058	PC	4205475	type	0
0x55612dc00b70 2038 0x55612da409c0 0x55612dbfe6c0
cpu	0	set	371	paddr	46904749087936	PC	4205475	type	0
0x55612da8d8c0 371 0x55612da409c0 0x55612da91c40
cpu	0	set	2043	paddr	277079410474746	PC	4205475	type	0
0x55612dc01d40 2043 0x55612da409c0 0x55612dbff840
cpu	0	set	921	paddr	138917968799330	PC	4205475	type	0
0x55612db08020 921 0x55612da409c0 0x55612db0a140
cpu	0	set	921	paddr	44188509857344	PC	4205298	type	0
0x55612db08020 921 0x55612da409c0 0x55612db0a140
cpu	0	set	54	paddr	175511773515184	PC	4205475	type	0
0x55612da46f70 54 0x55612da409c0 0x55612da4c6c0
cpu	0	set	274	paddr	197366405416092	PC	4205475	type	0
0x55612da77f30 274 0x55612da409c0 0x55612da7c8c0
cpu	0	set	429	paddr	87515771333456	PC	4205475	type	0
0x55612da9a760 429 0x55612da409c0 0x55612da9e740
cpu	0	set	1649	paddr	240520954223686	PC	4205480	type	0
0x55612dbaa1a0 1649 0x55612da409c0 0x55612dba9540
cpu	0	set	1664	paddr	215714536726548	PC	4205475	type	0
0x55612dbad710 1664 0x55612da409c0 0x55612dbac9c0
cpu	0	set	491	paddr	85590276864712	PC	4205480	type	0
0x55612daa8440 491 0x55612da409c0 0x55612daac040
cpu	0	set	264	paddr	122117675434496	PC	4205247	type	0
0x55612da75b90 264 0x55612da409c0 0x55612da7a5c0
cpu	0	set	1893	paddr	89198798297408	PC	4205465	type	0
0x55612dbe06e0 1893 0x55612da409c0 0x55612dbdeb40
cpu	0	set	334	paddr	46904749085600	PC	4205480	type	0
0x55612da854f0 334 0x55612da409c0 0x55612da89ac0
cpu	0	set	1748	paddr	93252702549302	PC	4205475	type	0
0x55612dbc0250 1748 0x55612da409c0 0x55612dbbefc0
cpu	0	set	327	paddr	87170743685568	PC	4205268	type	0
0x55612da83c00 327 0x55612da409c0 0x55612da88240
cpu	0	set	1929	paddr	259004453347904	PC	4205315	type	0
0x55612dbe8720 1929 0x55612da409c0 0x55612dbe6940
cpu	0	set	1302	paddr	108269990659502	PC	4205475	type	0
0x55612db5cd70 1302 0x55612da409c0 0x55612db5d6c0
cpu	0	set	850	paddr	189600378311860	PC	4205480	type	0
0x55612daf8330 850 0x55612da409c0 0x55612dafa8c0
cpu	0	set	1056	paddr	52812344395776	PC	4205370	type	0
0x55612db26110 1056 0x55612da409c0 0x55612db279c0
cpu	0	set	1509	paddr	161354593564992	PC	4205460	type	0
0x55612db8aee0 1509 0x55612da409c0 0x55612db8ab40
cpu	0	set	654	paddr	2852661273504	PC	4205475	type	0
0x55612dacc8f0 654 0x55612da409c0 0x55612dacfac0
cpu	0	set	900	paddr	146991278383400	PC	4205480	type	0
0x55612db03550 900 0x55612da409c0 0x55612db057c0
cpu	0	set	1058	paddr	52812344395904	PC	4205225	type	0
0x55612db26830 1058 0x55612da409c0 0x55612db280c0
cpu	0	set	904	paddr	146991278383672	PC	4205480	type	0
0x55612db04390 904 0x55612da409c0 0x55612db065c0
cpu	0	set	1367	paddr	52742621976030	PC	4205475	type	0
0x55612db6b500 1367 0x55612da409c0 0x55612db6ba40
cpu	0	set	2015	paddr	277115381872622	PC	4205480	type	0
0x55612dbfb980 2015 0x55612da409c0 0x55612dbf9640
cpu	0	set	518	paddr	111878538297752	PC	4205475	type	0
0x55612daae470 518 0x55612da409c0 0x55612dab1ec0
cpu	0	set	1852	paddr	63704212164362	PC	4205475	type	0
0x55612dbd74d0 1852 0x55612da409c0 0x55612dbd5bc0
cpu	0	set	583	paddr	63292698825152	PC	4205247	type	0
0x55612dabcc00 583 0x55612da409c0 0x55612dac0240
cpu	0	set	210	paddr	258763807274166	PC	4205475	type	0
0x55612da69b30 210 0x55612da409c0 0x55612da6e8c0
cpu	0	set	1111	paddr	174482756670966	PC	4205475	type	0
0x55612db32500 1111 0x55612da409c0 0x55612db33a40
cpu	0	set	943	paddr	253714004896760	PC	4205475	type	0
0x55612db0ce80 943 0x55612da409c0 0x55612db0ee40
cpu	0	set	953	paddr	253714004897346	PC	4205475	type	0
0x55612db0f220 953 0x55612da409c0 0x55612db11140
cpu	0	set	846	paddr	51404590207908	PC	4205475	type	0
0x55612daf74f0 846 0x55612da409c0 0x55612daf9ac0
cpu	0	set	549	paddr	59308544657728	PC	4205408	type	0
0x55612dab52e0 549 0x55612da409c0 0x55612dab8b40
cpu	0	set	148	paddr	98718131430716	PC	4205475	type	0
0x55612da5be50 148 0x55612da409c0 0x55612da60fc0
cpu	0	set	716	paddr	51646652134160	PC	4205475	type	0
0x55612dada5d0 716 0x55612da409c0 0x55612dadd3c0
cpu	0	set	465	paddr	195715816256638	PC	4205475	type	0
0x55612daa27a0 465 0x55612da409c0 0x55612daa6540
cpu	0	set	466	paddr	195715816256640	PC	4205514	type	0
0x55612daa2b30 466 0x55612da409c0 0x55612daa68c0
cpu	0	set	733	paddr	184653386004290	PC	4205475	type	0
0x55612dade260 733 0x55612da409c0 0x55612dae0f40
cpu	0	set	477	paddr	195715816257352	PC	4205475	type	0
0x55612daa5260 477 0x55612da409c0 0x55612daa8f40
cpu	0	set	1775	paddr	24464982391752	PC	4205475	type	0
0x55612dbc6280 1775 0x55612da409c0 0x55612dbc4e40
cpu	0	set	1737	paddr	93252702548586	PC	4205475	type	0
0x55612dbbdb20 1737 0x55612da409c0 0x55612dbbc940
cpu	0	set	1270	paddr	184618014817664	PC	4205366	type	0
0x55612db55b70 1270 0x55612da409c0 0x55612db566c0
cpu	0	set	1008	paddr	89030258785320	PC	4205475	type	0
0x55612db1b610 1008 0x55612da409c0 0x55612db1d1c0
cpu	0	set	868	paddr	151117672274176	PC	4207559	type	0
0x55612dafc350 868 0x55612da409c0 0x55612dafe7c0
cpu	0	set	1197	paddr	73944989641536	PC	4207818	type	0
0x55612db45760 1197 0x55612da409c0 0x55612db46740
cpu	0	set	1046	paddr	79305173828992	PC	4207559	type	0
0x55612db23d70 1046 0x55612da409c0 0x55612db256c0
cpu	0	set	1885	paddr	204028273350464	PC	4207559	type	0
0x55612dbdea60 1885 0x55612da409c0 0x55612dbdcf40
cpu	0	set	1203	paddr	224579032263875	PC	4209859	type	0
0x55612db46cc0 1203 0x55612da409c0 0x55612db47c40
cpu	0	set	1204	paddr	224579032263940	PC	4209924	type	0
0x55612db47050 1204 0x55612da409c0 0x55612db47fc0
cpu	0	set	1024	paddr	147301726486528	PC	4210688	type	0
0x55612db1ef10 1024 0x55612da409c0 0x55612db209c0
cpu	0	set	1212	paddr	224579032264451	PC	4210435	type	0
0x55612db48cd0 1212 0x55612da409c0 0x55612db49bc0
cpu	0	set	1293	paddr	160254226547560	PC	4210642	type	0
0x55612db5ad60 1293 0x55612da409c0 0x55612db5b740
cpu	0	set	1023	paddr	19451066384320	PC	4205247	type	0
0x55612db1eb80 1023 0x55612da409c0 0x55612db20640
cpu	0	set	706	paddr	215676844814518	PC	4205475	type	0
0x55612dad8230 706 0x55612da409c0 0x55612dadb0c0
cpu	0	set	789	paddr	65593043371374	PC	4205480	type	0
0x55612daea9e0 789 0x55612da409c0 0x55612daed340
cpu	0	set	1211	paddr	224579032264405	PC	4210389	type	0
0x55612db48940 1211 0x55612da409c0 0x55612db49840
cpu	0	set	2036	paddr	254847299747072	PC	4205315	type	0
0x55612dc00450 2036 0x55612da409c0 0x55612dbfdfc0
cpu	0	set	1914	paddr	37246555905724	PC	4205475	type	0
0x55612dbe51b0 1914 0x55612da409c0 0x55612dbe34c0
cpu	0	set	1861	paddr	37246555902278	PC	4205480	type	0
0x55612dbd94e0 1861 0x55612da409c0 0x55612dbd7b40
cpu	0	set	1205	paddr	224579032264002	PC	4209986	type	0
0x55612db473e0 1205 0x55612da409c0 0x55612db48340
cpu	0	set	461	paddr	257973438411636	PC	4205475	type	0
0x55612daa1960 461 0x55612da409c0 0x55612daa5740
cpu	0	set	460	paddr	257973438411548	PC	4205480	type	0
0x55612daa15d0 460 0x55612da409c0 0x55612daa53c0
cpu	0	set	1825	paddr	122563417458752	PC	4207559	type	0
0x55612dbd14a0 1825 0x55612da409c0 0x55612dbcfd40
cpu	0	set	1386	paddr	37727083256448	PC	4207559	type	0
0x55612db6f8b0 1386 0x55612da409c0 0x55612db6fcc0
cpu	0	set	556	paddr	267562476407552	PC	4207559	type	0
0x55612dab6bd0 556 0x55612da409c0 0x55612daba3c0
cpu	0	set	156	paddr	52126052787968	PC	4205247	type	0
0x55612da5dad0 156 0x55612da409c0 0x55612da62bc0
cpu	0	set	82	paddr	245982054061238	PC	4205475	type	0
0x55612da4d330 82 0x55612da409c0 0x55612da528c0
cpu	0	set	893	paddr	201418373390178	PC	4205480	type	0
0x55612db01c60 893 0x55612da409c0 0x55612db03f40
cpu	0	set	1127	paddr	214922481441216	PC	4205247	type	0
0x55612db35e00 1127 0x55612da409c0 0x55612db37240
cpu	0	set	1952	paddr	174857139251200	PC	4207559	type	0
0x55612dbed910 1952 0x55612da409c0 0x55612dbeb9c0
cpu	0	set	1241	paddr	33504840726080	PC	4207559	type	0
0x55612db4f420 1241 0x55612da409c0 0x55612db50140
cpu	0	set	1972	paddr	259004453350656	PC	4205221	type	0
0x55612dbf2050 1972 0x55612da409c0 0x55612dbeffc0
cpu	0	set	1787	paddr	204717285031616	PC	4205221	type	0
0x55612dbc8d40 1787 0x55612da409c0 0x55612dbc7840
cpu	0	set	244	paddr	153144266079488	PC	4205264	type	0
0x55612da71450 244 0x55612da409c0 0x55612da75fc0
cpu	0	set	434	paddr	102395569138816	PC	4205221	type	0
0x55612da9b930 434 0x55612da409c0 0x55612da9f8c0
cpu	0	set	1714	paddr	118370821319808	PC	4205247	type	0
0x55612dbb8930 1714 0x55612da409c0 0x55612dbb78c0
cpu	0	set	96	paddr	234197937559552	PC	4207559	type	0
0x55612da50510 96 0x55612da409c0 0x55612da559c0
cpu	0	set	1	paddr	221177277317184	PC	4207559	type	0
0x55612da3b2a0 1 0x55612da409c0 0x55612da40d40
cpu	0	set	169	paddr	52126052788800	PC	4207559	type	0
0x55612da60920 169 0x55612da409c0 0x55612da65940
cpu	0	set	2039	paddr	244300774636992	PC	4207559	type	0
0x55612dc00f00 2039 0x55612da409c0 0x55612dbfea40

Warmup complete CPU 0 instructions: 100001 cycles: 45342 (Simulation time: 0 hr 0 min 1 sec) 

cpu	0	set	1867	paddr	93256472056512	PC	4207559	type	0
0x55612dbdaa40 1867 0x55612da409c0 0x55612dbd9040
cpu	0	set	1324	paddr	105796067609344	PC	4207559	type	0
0x55612db61bd0 1324 0x55612da409c0 0x55612db623c0
cpu	0	set	15	paddr	72880832381888	PC	4207559	type	0
0x55612da3e480 15 0x55612da409c0 0x55612da43e40
cpu	0	set	538	paddr	62126051329664	PC	4205264	type	0
0x55612dab2bb0 538 0x55612da409c0 0x55612dab64c0
cpu	0	set	184	paddr	93084571151924	PC	4205475	type	0
0x55612da63e90 184 0x55612da409c0 0x55612da68dc0
cpu	0	set	244	paddr	269314975612174	PC	4205480	type	0
0x55612da71450 244 0x55612da409c0 0x55612da75fc0
cpu	0	set	731	paddr	255742252332736	PC	4205433	type	0
0x55612daddb40 731 0x55612da409c0 0x55612dae0840
cpu	0	set	518	paddr	199838241423758	PC	4205475	type	0
0x55612daae470 518 0x55612da409c0 0x55612dab1ec0
cpu	0	set	1978	paddr	201351932669602	PC	4205480	type	0
0x55612dbf35b0 1978 0x55612da409c0 0x55612dbf14c0
cpu	0	set	1943	paddr	218394628449728	PC	4205465	type	0
0x55612dbeb900 1943 0x55612da409c0 0x55612dbe9a40
cpu	0	set	549	paddr	42469394385274	PC	4205475	type	0
0x55612dab52e0 549 0x55612da409c0 0x55612dab8b40
cpu	0	set	1202	paddr	221656484359328	PC	4205480	type	0
0x55612db46930 1202 0x55612da409c0 0x55612db478c0
cpu	0	set	223	paddr	153144266078144	PC	4205315	type	0
0x55612da6c980 223 0x55612da409c0 0x55612da71640
cpu	0	set	1158	paddr	177678284038528	PC	4205391	type	0
0x55612db3cc70 1158 0x55612da409c0 0x55612db3dec0
cpu	0	set	1154	paddr	36631717028014	PC	4205475	type	0
0x55612db3be30 1154 0x55612da409c0 0x55612db3d0c0
cpu	0	set	1552	paddr	158023964001318	PC	4205480	type	0
0x55612db94810 1552 0x55612da409c0 0x55612db941c0
cpu	0	set	39	paddr	221177277319616	PC	4205247	type	0
0x55612da43a00 39 0x55612da409c0 0x55612da49240
cpu	0	set	1679	paddr	233373827965888	PC	4205349	type	0
0x55612dbb0c80 1679 0x55612da409c0 0x55612dbafe40
cpu	0	set	930	paddr	248354380900522	PC	4205475	type	0
0x55612db0a030 930 0x55612da409c0 0x55612db0c0c0
cpu	0	set	754	paddr	156786003459218	PC	4205480	type	0
0x55612dae2d30 754 0x55612da409c0 0x55612dae58c0
cpu	0	set	1230	paddr	226983942763392	PC	4205429	type	0
0x55612db4ccf0 1230 0x55612da409c0 0x55612db4dac0
cpu	0	set	480	paddr	257115893037090	PC	4205475	type	0
0x55612daa5d10 480 0x55612da409c0 0x55612daa99c0
cpu	0	set	1451	paddr	141772134771392	PC	4205281	type	0
0x55612db7e040 1451 0x55612da409c0 0x55612db7e040
cpu	0	set	730	paddr	85866175575730	PC	4205475	type	0
0x55612dadd7b0 730 0x55612da409c0 0x55612dae04c0
cpu	0	set	591	paddr	27147220456426	PC	4205475	type	0
0x55612dabe880 591 0x55612da409c0 0x55612dac1e40
cpu	0	set	1827	paddr	281340884404436	PC	4205480	type	0
0x55612dbd1bc0 1827 0x55612da409c0 0x55612dbd0440
cpu	0	set	146	paddr	103663423202432	PC	4205387	type	0
0x55612da5b730 146 0x55612da409c0 0x55612da608c0
cpu	0	set	1448	paddr	227498773015078	PC	4205475	type	0
0x55612db7d590 1448 0x55612da409c0 0x55612db7d5c0
cpu	0	set	276	paddr	234814684415248	PC	4205475	type	0
0x55612da78650 276 0x55612da409c0 0x55612da7cfc0
cpu	0	set	829	paddr	65593043373938	PC	4205480	type	0
0x55612daf3860 829 0x55612da409c0 0x55612daf5f40
cpu	0	set	1074	paddr	175271604063422	PC	4205475	type	0
0x55612db2a130 1074 0x55612da409c0 0x55612db2b8c0
cpu	0	set	1329	paddr	151667788827732	PC	4205475	type	0
0x55612db62da0 1329 0x55612da409c0 0x55612db63540
cpu	0	set	540	paddr	257735774209814	PC	4205475	type	0
0x55612dab32d0 540 0x55612da409c0 0x55612dab6bc0
cpu	0	set	997	paddr	79957230287214	PC	4205480	type	0
0x55612db18ee0 997 0x55612da409c0 0x55612db1ab40
cpu	0	set	1816	paddr	194546929092096	PC	4205225	type	0
0x55612dbcf490 1816 0x55612da409c0 0x55612dbcddc0
cpu	0	set	1057	paddr	175271604062292	PC	4205480	type	0
0x55612db264a0 1057 0x55612da409c0 0x55612db27d40
cpu	0	set	1575	paddr	158023964002788	PC	4205475	type	0
0x55612db99a00 1575 0x55612da409c0 0x55612db99240
cpu	0	set	410	paddr	262923334084284	PC	4205475	type	0
0x55612da963b0 410 0x55612da409c0 0x55612da9a4c0
cpu	0	set	1827	paddr	161699319236822	PC	4205480	type	0
0x55612dbd1bc0 1827 0x55612da409c0 0x55612dbd0440
cpu	0	set	1193	paddr	177678284040768	PC	4205315	type	0
0x55612db44920 1193 0x55612da409c0 0x55612db45940
cpu	0	set	470	paddr	149915557721518	PC	4205475	type	0
0x55612daa3970 470 0x55612da409c0 0x55612daa76c0
cpu	0	set	1200	paddr	177678284041216	PC	4205349	type	0
0x55612db46210 1200 0x55612da409c0 0x55612db471c0
cpu	0	set	484	paddr	149915557722410	PC	4205475	type	0
0x55612daa6b50 484 0x55612da409c0 0x55612daaa7c0
cpu	0	set	2022	paddr	244300774635904	PC	4205499	type	0
0x55612dbfd270 2022 0x55612da409c0 0x55612dbfaec0
cpu	0	set	1040	paddr	175271604061214	PC	4205475	type	0
0x55612db22810 1040 0x55612da409c0 0x55612db241c0
cpu	0	set	1472	paddr	198327543230472	PC	4205480	type	0
0x55612db82b10 1472 0x55612da409c0 0x55612db829c0
cpu	0	set	1456	paddr	3884277918721	PC	4205569	type	0
0x55612db7f210 1456 0x55612da409c0 0x55612db7f1c0
cpu	0	set	1236	paddr	217191891678480	PC	4205475	type	0
0x55612db4e250 1236 0x55612da409c0 0x55612db4efc0
cpu	0	set	1021	paddr	153519850848088	PC	4205475	type	0
0x55612db1e460 1021 0x55612da409c0 0x55612db1ff40
cpu	0	set	733	paddr	27247580591976	PC	4205475	type	0
0x55612dade260 733 0x55612da409c0 0x55612dae0f40
cpu	0	set	531	paddr	199838241424614	PC	4205480	type	0
0x55612dab12c0 531 0x55612da409c0 0x55612dab4c40
cpu	0	set	1241	paddr	90506627987070	PC	4205475	type	0
0x55612db4f420 1241 0x55612da409c0 0x55612db50140
cpu	0	set	133	paddr	175306319601986	PC	4205480	type	0
0x55612da588e0 133 0x55612da409c0 0x55612da5db40
cpu	0	set	1635	paddr	240520954222812	PC	4205475	type	0
0x55612dba6fc0 1635 0x55612da409c0 0x55612dba6440
cpu	0	set	309	paddr	96038234246482	PC	4205480	type	0
0x55612da7fbe0 309 0x55612da409c0 0x55612da84340
cpu	0	set	822	paddr	65593043373476	PC	4205480	type	0
0x55612daf1f70 822 0x55612da409c0 0x55612daf46c0
cpu	0	set	89	paddr	234197937559104	PC	4205412	type	0
0x55612da4ec20 89 0x55612da409c0 0x55612da54140
cpu	0	set	1940	paddr	233854673216768	PC	4205429	type	0
0x55612dbeae50 1940 0x55612da409c0 0x55612dbe8fc0
cpu	0	set	1324	paddr	116240277261090	PC	4205475	type	0
0x55612db61bd0 1324 0x55612da409c0 0x55612db623c0
cpu	0	set	497	paddr	214749883169860	PC	4205480	type	0
0x55612daa99a0 497 0x55612da409c0 0x55612daad540
cpu	0	set	1472	paddr	87034861678618	PC	4205475	type	0
0x55612db82b10 1472 0x55612da409c0 0x55612db829c0
cpu	0	set	1583	paddr	158023964003274	PC	4205475	type	0
0x55612db9b680 1583 0x55612da409c0 0x55612db9ae40
cpu	0	set	1895	paddr	276975411255798	PC	4205480	type	0
0x55612dbe0e00 1895 0x55612da409c0 0x55612dbdf240
cpu	0	set	1475	paddr	270861093662952	PC	4205475	type	0
0x55612db835c0 1475 0x55612da409c0 0x55612db83440
cpu	0	set	1565	paddr	34913445840760	PC	4205480	type	0
0x55612db97660 1565 0x55612da409c0 0x55612db96f40
cpu	0	set	263	paddr	151976720613844	PC	4205475	type	0
0x55612da75800 263 0x55612da409c0 0x55612da7a240
cpu	0	set	1046	paddr	186163806406032	PC	4205475	type	0
0x55612db23d70 1046 0x55612da409c0 0x55612db256c0
cpu	0	set	430	paddr	192693439327104	PC	4205480	type	0
0x55612da9aaf0 430 0x55612da409c0 0x55612da9eac0
cpu	0	set	216	paddr	72500794242576	PC	4205480	type	0
0x55612da6b090 216 0x55612da409c0 0x55612da6fdc0
cpu	0	set	253	paddr	258763807276874	PC	4205475	type	0
0x55612da73460 253 0x55612da409c0 0x55612da77f40
cpu	0	set	1727	paddr	147372388757440	PC	4205268	type	0
0x55612dbbb780 1727 0x55612da409c0 0x55612dbba640
cpu	0	set	1067	paddr	69445224434376	PC	4205475	type	0
0x55612db28840 1067 0x55612da409c0 0x55612db2a040
cpu	0	set	642	paddr	238904569536692	PC	4205480	type	0
0x55612dac9e30 642 0x55612da409c0 0x55612dacd0c0
cpu	0	set	1770	paddr	54701040450176	PC	4205465	type	0
0x55612dbc50b0 1770 0x55612da409c0 0x55612dbc3cc0
cpu	0	set	1647	paddr	197778284321768	PC	4205475	type	0
0x55612dba9a80 1647 0x55612da409c0 0x55612dba8e40
cpu	0	set	344	paddr	21715741070880	PC	4205480	type	0
0x55612da87890 344 0x55612da409c0 0x55612da8bdc0
cpu	0	set	1836	paddr	260000559778560	PC	4205319	type	0
0x55612dbd3bd0 1836 0x55612da409c0 0x55612dbd23c0
cpu	0	set	727	paddr	242443183109568	PC	4205475	type	0
0x55612dadcd00 727 0x55612da409c0 0x55612dadfa40
cpu	0	set	924	paddr	244437275567918	PC	4205480	type	0
0x55612db08ad0 924 0x55612da409c0 0x55612db0abc0
cpu	0	set	181	paddr	115793117719910	PC	4205475	type	0
0x55612da633e0 181 0x55612da409c0 0x55612da68340
cpu	0	set	326	paddr	48794129682816	PC	4205475	type	0
0x55612da83870 326 0x55612da409c0 0x55612da87ec0
cpu	0	set	318	paddr	197366405418890	PC	4205475	type	0
0x55612da81bf0 318 0x55612da409c0 0x55612da862c0
cpu	0	set	25	paddr	175511773513336	PC	4205480	type	0
0x55612da40820 25 0x55612da409c0 0x55612da46140
cpu	0	set	1054	paddr	103151729837952	PC	4205336	type	0
0x55612db259f0 1054 0x55612da409c0 0x55612db272c0
cpu	0	set	495	paddr	211624437119936	PC	4205408	type	0
0x55612daa9280 495 0x55612da409c0 0x55612daace40
cpu	0	set	1058	paddr	72295856933028	PC	4205475	type	0
0x55612db26830 1058 0x55612da409c0 0x55612db280c0
cpu	0	set	1792	paddr	176887942332460	PC	4205480	type	0
0x55612dbc9f10 1792 0x55612da409c0 0x55612dbc89c0
cpu	0	set	562	paddr	199838241426578	PC	4205475	type	0
0x55612dab8130 562 0x55612da409c0 0x55612dabb8c0
cpu	0	set	800	paddr	163898286065666	PC	4205475	type	0
0x55612daed110 800 0x55612da409c0 0x55612daef9c0
cpu	0	set	1517	paddr	46282760485748	PC	4205475	type	0
0x55612db8cb60 1517 0x55612da409c0 0x55612db8c740
cpu	0	set	1184	paddr	224579032262661	PC	4208645	type	0
0x55612db42910 1184 0x55612da409c0 0x55612db439c0
cpu	0	set	1185	paddr	224579032262730	PC	4208714	type	0
0x55612db42ca0 1185 0x55612da409c0 0x55612db43d40
cpu	0	set	1161	paddr	224579032261233	PC	4207217	type	0
0x55612db3d720 1161 0x55612da409c0 0x55612db3e940
cpu	0	set	368	paddr	262098838248504	PC	4208673	type	0
0x55612da8ce10 368 0x55612da409c0 0x55612da911c0
cpu	0	set	1162	paddr	224579032261253	PC	4207237	type	0
0x55612db3dab0 1162 0x55612da409c0 0x55612db3ecc0
cpu	0	set	369	paddr	262098838248512	PC	4207242	type	0
0x55612da8d1a0 369 0x55612da409c0 0x55612da91540
cpu	0	set	370	paddr	262098838248576	PC	4207242	type	0
0x55612da8d530 370 0x55612da409c0 0x55612da918c0
cpu	0	set	1163	paddr	224579032261314	PC	4207298	type	0
0x55612db3de40 1163 0x55612da409c0 0x55612db3f040
cpu	0	set	1376	paddr	198977552603156	PC	4207456	type	0
0x55612db6d510 1376 0x55612da409c0 0x55612db6d9c0
cpu	0	set	1798	paddr	73839737160068	PC	4207559	type	0
0x55612dbcb470 1798 0x55612da409c0 0x55612dbc9ec0
cpu	0	set	963	paddr	275909597917409	PC	4207472	type	0
0x55612db115c0 963 0x55612da409c0 0x55612db13440
cpu	0	set	110	paddr	163830644612004	PC	4207470	type	0
0x55612da536f0 110 0x55612da409c0 0x55612da58ac0
cpu	0	set	877	paddr	123867238947648	PC	4207464	type	0
0x55612dafe360 877 0x55612da409c0 0x55612db00740
cpu	0	set	397	paddr	10995792634736	PC	4207450	type	0
0x55612da93560 397 0x55612da409c0 0x55612da97740
cpu	0	set	1801	paddr	73839737160304	PC	4207559	type	0
0x55612dbcbf20 1801 0x55612da409c0 0x55612dbca940
cpu	0	set	876	paddr	123867238947644	PC	4207812	type	0
0x55612dafdfd0 876 0x55612da409c0 0x55612db003c0
cpu	0	set	961	paddr	275909597917279	PC	4207818	type	0
0x55612db10ea0 961 0x55612da409c0 0x55612db12d40
cpu	0	set	1805	paddr	73839737160546	PC	4207559	type	0
0x55612dbccd60 1805 0x55612da409c0 0x55612dbcb740
cpu	0	set	960	paddr	275909597917223	PC	4207818	type	0
0x55612db10b10 960 0x55612da409c0 0x55612db129c0
cpu	0	set	638	paddr	250963675881358	PC	4207818	type	0
0x55612dac8ff0 638 0x55612da409c0 0x55612dacc2c0
cpu	0	set	637	paddr	250963675881328	PC	4207818	type	0
0x55612dac8c60 637 0x55612da409c0 0x55612dacbf40
cpu	0	set	636	paddr	250963675881217	PC	4207818	type	0
0x55612dac88d0 636 0x55612da409c0 0x55612dacbbc0
cpu	0	set	635	paddr	250963675881187	PC	4207818	type	0
0x55612dac8540 635 0x55612da409c0 0x55612dacb840
cpu	0	set	633	paddr	250963675881028	PC	4207818	type	0
0x55612dac7e20 633 0x55612da409c0 0x55612dacb140
cpu	0	set	632	paddr	250963675880998	PC	4207818	type	0
0x55612dac7a90 632 0x55612da409c0 0x55612dacadc0
cpu	0	set	631	paddr	250963675880919	PC	4207818	type	0
0x55612dac7700 631 0x55612da409c0 0x55612dacaa40
cpu	0	set	1812	paddr	73839737160997	PC	4207559	type	0
0x55612dbce650 1812 0x55612da409c0 0x55612dbccfc0
cpu	0	set	1822	paddr	73839737161601	PC	4207559	type	0
0x55612dbd09f0 1822 0x55612da409c0 0x55612dbcf2c0
cpu	0	set	111	paddr	163830644612032	PC	4207552	type	0
0x55612da53a80 111 0x55612da409c0 0x55612da58e40
cpu	0	set	1825	paddr	73839737161805	PC	4207559	type	0
0x55612dbd14a0 1825 0x55612da409c0 0x55612dbcfd40
cpu	0	set	1829	paddr	73839737162108	PC	4207559	type	0
0x55612dbd22e0 1829 0x55612da409c0 0x55612dbd0b40
cpu	0	set	1831	paddr	73839737162206	PC	4207559	type	0
0x55612dbd2a00 1831 0x55612da409c0 0x55612dbd1240
cpu	0	set	1832	paddr	73839737162291	PC	4207559	type	0
0x55612dbd2d90 1832 0x55612da409c0 0x55612dbd15c0
cpu	0	set	1835	paddr	73839737162480	PC	4207559	type	0
0x55612dbd3840 1835 0x55612da409c0 0x55612dbd2040
cpu	0	set	630	paddr	250963675880866	PC	4207818	type	0
0x55612dac7370 630 0x55612da409c0 0x55612daca6c0
cpu	0	set	629	paddr	250963675880788	PC	4207818	type	0
0x55612dac6fe0 629 0x55612da409c0 0x55612daca340
cpu	0	set	1837	paddr	73839737162615	PC	4207559	type	0
0x55612dbd3f60 1837 0x55612da409c0 0x55612dbd2740
cpu	0	set	628	paddr	250963675880765	PC	4207818	type	0
0x55612dac6c50 628 0x55612da409c0 0x55612dac9fc0
cpu	0	set	875	paddr	123867238947580	PC	4207812	type	0
0x55612dafdc40 875 0x55612da409c0 0x55612db00040
cpu	0	set	626	paddr	250963675880634	PC	4207818	type	0
0x55612dac6530 626 0x55612da409c0 0x55612dac98c0
cpu	0	set	624	paddr	250963675880459	PC	4207818	type	0
0x55612dac5e10 624 0x55612da409c0 0x55612dac91c0
cpu	0	set	623	paddr	250963675880429	PC	4207818	type	0
0x55612dac5a80 623 0x55612da409c0 0x55612dac8e40
cpu	0	set	622	paddr	250963675880340	PC	4207818	type	0
0x55612dac56f0 622 0x55612da409c0 0x55612dac8ac0
cpu	0	set	1842	paddr	73839737162898	PC	4207559	type	0
0x55612dbd5130 1842 0x55612da409c0 0x55612dbd38c0
cpu	0	set	1848	paddr	73839737163291	PC	4207559	type	0
0x55612dbd6690 1848 0x55612da409c0 0x55612dbd4dc0
cpu	0	set	621	paddr	250963675880314	PC	4207818	type	0
0x55612dac5360 621 0x55612da409c0 0x55612dac8740
cpu	0	set	619	paddr	250963675880174	PC	4207818	type	0
0x55612dac4c40 619 0x55612da409c0 0x55612dac8040
cpu	0	set	617	paddr	250963675880043	PC	4207818	type	0
0x55612dac4520 617 0x55612da409c0 0x55612dac7940
cpu	0	set	615	paddr	250963675879908	PC	4207818	type	0
0x55612dac3e00 615 0x55612da409c0 0x55612dac7240
cpu	0	set	614	paddr	250963675879841	PC	4207818	type	0
0x55612dac3a70 614 0x55612da409c0 0x55612dac6ec0
cpu	0	set	704	paddr	110641911869486	PC	4207559	type	0
0x55612dad7b10 704 0x55612da409c0 0x55612dada9c0
cpu	0	set	707	paddr	110641911869676	PC	4207559	type	0
0x55612dad85c0 707 0x55612da409c0 0x55612dadb440
cpu	0	set	710	paddr	110641911869864	PC	4207559	type	0
0x55612dad9070 710 0x55612da409c0 0x55612dadbec0
cpu	0	set	613	paddr	250963675879760	PC	4207818	type	0
0x55612dac36e0 613 0x55612da409c0 0x55612dac6b40
cpu	0	set	715	paddr	110641911870159	PC	4207559	type	0
0x55612dada240 715 0x55612da409c0 0x55612dadd040
cpu	0	set	611	paddr	250963675879677	PC	4207818	type	0
0x55612dac2fc0 611 0x55612da409c0 0x55612dac6440
cpu	0	set	609	paddr	250963675879523	PC	4207818	type	0
0x55612dac28a0 609 0x55612da409c0 0x55612dac5d40
cpu	0	set	874	paddr	123867238947516	PC	4207812	type	0
0x55612dafd8b0 874 0x55612da409c0 0x55612daffcc0
cpu	0	set	716	paddr	110641911870234	PC	4207559	type	0
0x55612dada5d0 716 0x55612da409c0 0x55612dadd3c0
cpu	0	set	608	paddr	250963675879441	PC	4207818	type	0
0x55612dac2510 608 0x55612da409c0 0x55612dac59c0
cpu	0	set	607	paddr	250963675879411	PC	4207818	type	0
0x55612dac2180 607 0x55612da409c0 0x55612dac5640
cpu	0	set	606	paddr	250963675879327	PC	4207818	type	0
0x55612dac1df0 606 0x55612da409c0 0x55612dac52c0
cpu	0	set	717	paddr	110641911870293	PC	4207559	type	0
0x55612dada960 717 0x55612da409c0 0x55612dadd740
cpu	0	set	718	paddr	110641911870376	PC	4207559	type	0
0x55612dadacf0 718 0x55612da409c0 0x55612daddac0
cpu	0	set	719	paddr	110641911870436	PC	4207559	type	0
0x55612dadb080 719 0x55612da409c0 0x55612dadde40
cpu	0	set	604	paddr	250963675879227	PC	4207818	type	0
0x55612dac16d0 604 0x55612da409c0 0x55612dac4bc0
cpu	0	set	727	paddr	110641911870970	PC	4207559	type	0
0x55612dadcd00 727 0x55612da409c0 0x55612dadfa40
cpu	0	set	601	paddr	250963675879003	PC	4207818	type	0
0x55612dac0c20 601 0x55612da409c0 0x55612dac4140
cpu	0	set	600	paddr	250963675878965	PC	4207818	type	0
0x55612dac0890 600 0x55612da409c0 0x55612dac3dc0
cpu	0	set	733	paddr	110641911871338	PC	4207559	type	0
0x55612dade260 733 0x55612da409c0 0x55612dae0f40
cpu	0	set	112	paddr	163830644612096	PC	4207552	type	0
0x55612da53e10 112 0x55612da409c0 0x55612da591c0
cpu	0	set	749	paddr	110641911872350	PC	4207559	type	0
0x55612dae1b60 749 0x55612da409c0 0x55612dae4740
cpu	0	set	757	paddr	110641911872852	PC	4207559	type	0
0x55612dae37e0 757 0x55612da409c0 0x55612dae6340
cpu	0	set	759	paddr	110641911873008	PC	4207559	type	0
0x55612dae3f00 759 0x55612da409c0 0x55612dae6a40
cpu	0	set	760	paddr	110641911873034	PC	4207559	type	0
0x55612dae4290 760 0x55612da409c0 0x55612dae6dc0
cpu	0	set	599	paddr	250963675878889	PC	4207818	type	0
0x55612dac0500 599 0x55612da409c0 0x55612dac3a40
cpu	0	set	597	paddr	250963675878763	PC	4207818	type	0
0x55612dabfde0 597 0x55612da409c0 0x55612dac3340
cpu	0	set	765	paddr	110641911873388	PC	4207559	type	0
0x55612dae5460 765 0x55612da409c0 0x55612dae7f40
cpu	0	set	596	paddr	250963675878699	PC	4207818	type	0
0x55612dabfa50 596 0x55612da409c0 0x55612dac2fc0
cpu	0	set	873	paddr	123867238947452	PC	4207812	type	0
0x55612dafd520 873 0x55612da409c0 0x55612daff940
cpu	0	set	594	paddr	250963675878551	PC	4207818	type	0
0x55612dabf330 594 0x55612da409c0 0x55612dac28c0
cpu	0	set	593	paddr	250963675878497	PC	4207818	type	0
0x55612dabefa0 593 0x55612da409c0 0x55612dac2540
cpu	0	set	592	paddr	250963675878410	PC	4207818	type	0
0x55612dabec10 592 0x55612da409c0 0x55612dac21c0
cpu	0	set	591	paddr	250963675878380	PC	4207818	type	0
0x55612dabe880 591 0x55612da409c0 0x55612dac1e40
cpu	0	set	590	paddr	250963675878276	PC	4207818	type	0
0x55612dabe4f0 590 0x55612da409c0 0x55612dac1ac0
cpu	0	set	1602	paddr	227292320862336	PC	4207559	type	0
0x55612db9fa30 1602 0x55612da409c0 0x55612db9f0c0
cpu	0	set	589	paddr	250963675878249	PC	4207818	type	0
0x55612dabe160 589 0x55612da409c0 0x55612dac1740
cpu	0	set	588	paddr	250963675878163	PC	4207818	type	0
0x55612dabddd0 588 0x55612da409c0 0x55612dac13c0
cpu	0	set	587	paddr	250963675878143	PC	4207818	type	0
0x55612dabda40 587 0x55612da409c0 0x55612dac1040
cpu	0	set	586	paddr	250963675878045	PC	4207818	type	0
0x55612dabd6b0 586 0x55612da409c0 0x55612dac0cc0
cpu	0	set	1604	paddr	227292320862506	PC	4207559	type	0
0x55612dba0150 1604 0x55612da409c0 0x55612db9f7c0
cpu	0	set	1605	paddr	227292320862556	PC	4207559	type	0
0x55612dba04e0 1605 0x55612da409c0 0x55612db9fb40
cpu	0	set	1606	paddr	227292320862629	PC	4207559	type	0
0x55612dba0870 1606 0x55612da409c0 0x55612db9fec0
cpu	0	set	1607	paddr	227292320862706	PC	4207559	type	0
0x55612dba0c00 1607 0x55612da409c0 0x55612dba0240
cpu	0	set	1611	paddr	227292320862930	PC	4207559	type	0
0x55612dba1a40 1611 0x55612da409c0 0x55612dba1040
cpu	0	set	1612	paddr	227292320863038	PC	4207559	type	0
0x55612dba1dd0 1612 0x55612da409c0 0x55612dba13c0
cpu	0	set	113	paddr	163830644612160	PC	4207552	type	0
0x55612da541a0 113 0x55612da409c0 0x55612da59540
cpu	0	set	1614	paddr	227292320863106	PC	4207559	type	0
0x55612dba24f0 1614 0x55612da409c0 0x55612dba1ac0
cpu	0	set	585	paddr	250963675877959	PC	4207818	type	0
0x55612dabd320 585 0x55612da409c0 0x55612dac0940
cpu	0	set	584	paddr	250963675877929	PC	4207818	type	0
0x55612dabcf90 584 0x55612da409c0 0x55612dac05c0
cpu	0	set	1617	paddr	227292320863345	PC	4207559	type	0
0x55612dba2fa0 1617 0x55612da409c0 0x55612dba2540
cpu	0	set	582	paddr	250963675877816	PC	4207818	type	0
0x55612dabc870 582 0x55612da409c0 0x55612dabfec0
cpu	0	set	1636	paddr	227292320864517	PC	4207559	type	0
0x55612dba7350 1636 0x55612da409c0 0x55612dba67c0
cpu	0	set	1642	paddr	227292320864949	PC	4207559	type	0
0x55612dba88b0 1642 0x55612da409c0 0x55612dba7cc0
cpu	0	set	581	paddr	250963675877759	PC	4207818	type	0
0x55612dabc4e0 581 0x55612da409c0 0x55612dabfb40
cpu	0	set	872	paddr	123867238947388	PC	4207812	type	0
0x55612dafd190 872 0x55612da409c0 0x55612daff5c0
cpu	0	set	1651	paddr	227292320865521	PC	4207559	type	0
0x55612dbaa8c0 1651 0x55612da409c0 0x55612dba9c40
cpu	0	set	580	paddr	250963675877678	PC	4207818	type	0
0x55612dabc150 580 0x55612da409c0 0x55612dabf7c0
cpu	0	set	579	paddr	250963675877620	PC	4207818	type	0
0x55612dabbdc0 579 0x55612da409c0 0x55612dabf440
cpu	0	set	576	paddr	250963675877415	PC	4207818	type	0
0x55612dabb310 576 0x55612da409c0 0x55612dabe9c0
cpu	0	set	1023	paddr	269827608739804	PC	4207818	type	0
0x55612db1eb80 1023 0x55612da409c0 0x55612db20640
cpu	0	set	1022	paddr	269827608739774	PC	4207818	type	0
0x55612db1e7f0 1022 0x55612da409c0 0x55612db202c0
cpu	0	set	1020	paddr	269827608739638	PC	4207818	type	0
0x55612db1e0d0 1020 0x55612da409c0 0x55612db1fbc0
cpu	0	set	1652	paddr	227292320865561	PC	4207559	type	0
0x55612dbaac50 1652 0x55612da409c0 0x55612dba9fc0
cpu	0	set	1860	paddr	93256472056097	PC	4207559	type	0
0x55612dbd9150 1860 0x55612da409c0 0x55612dbd77c0
cpu	0	set	1019	paddr	269827608739581	PC	4207818	type	0
0x55612db1dd40 1019 0x55612da409c0 0x55612db1f840
cpu	0	set	1017	paddr	269827608739433	PC	4207818	type	0
0x55612db1d620 1017 0x55612da409c0 0x55612db1f140
cpu	0	set	871	paddr	123867238947324	PC	4207812	type	0
0x55612dafce00 871 0x55612da409c0 0x55612daff240
cpu	0	set	1014	paddr	269827608739258	PC	4207818	type	0
0x55612db1cb70 1014 0x55612da409c0 0x55612db1e6c0
cpu	0	set	1013	paddr	269827608739157	PC	4207818	type	0
0x55612db1c7e0 1013 0x55612da409c0 0x55612db1e340
cpu	0	set	1012	paddr	269827608739107	PC	4207818	type	0
0x55612db1c450 1012 0x55612da409c0 0x55612db1dfc0
cpu	0	set	1009	paddr	269827608738927	PC	4207818	type	0
0x55612db1b9a0 1009 0x55612da409c0 0x55612db1d540
cpu	0	set	1861	paddr	93256472056142	PC	4207559	type	0
0x55612dbd94e0 1861 0x55612da409c0 0x55612dbd7b40
cpu	0	set	114	paddr	163830644612224	PC	4207552	type	0
0x55612da54530 114 0x55612da409c0 0x55612da598c0
cpu	0	set	1863	paddr	93256472056270	PC	4207559	type	0
0x55612dbd9c00 1863 0x55612da409c0 0x55612dbd8240
cpu	0	set	1873	paddr	93256472056944	PC	4207559	type	0
0x55612dbdbfa0 1873 0x55612da409c0 0x55612dbda540
cpu	0	set	1874	paddr	93256472056975	PC	4207559	type	0
0x55612dbdc330 1874 0x55612da409c0 0x55612dbda8c0
cpu	0	set	1876	paddr	93256472057106	PC	4207559	type	0
0x55612dbdca50 1876 0x55612da409c0 0x55612dbdafc0
cpu	0	set	1879	paddr	93256472057289	PC	4207559	type	0
0x55612dbdd500 1879 0x55612da409c0 0x55612dbdba40
cpu	0	set	1007	paddr	269827608738784	PC	4207818	type	0
0x55612db1b280 1007 0x55612da409c0 0x55612db1ce40
cpu	0	set	1881	paddr	93256472057409	PC	4207559	type	0
0x55612dbddc20 1881 0x55612da409c0 0x55612dbdc140
cpu	0	set	1894	paddr	93256472058255	PC	4207559	type	0
0x55612dbe0a70 1894 0x55612da409c0 0x55612dbdeec0
cpu	0	set	1004	paddr	269827608738610	PC	4207818	type	0
0x55612db1a7d0 1004 0x55612da409c0 0x55612db1c3c0
cpu	0	set	1002	paddr	269827608738456	PC	4207818	type	0
0x55612db1a0b0 1002 0x55612da409c0 0x55612db1bcc0
cpu	0	set	1001	paddr	269827608738426	PC	4207818	type	0
0x55612db19d20 1001 0x55612da409c0 0x55612db1b940
cpu	0	set	870	paddr	123867238947260	PC	4207812	type	0
0x55612dafca70 870 0x55612da409c0 0x55612dafeec0
cpu	0	set	1000	paddr	269827608738356	PC	4207818	type	0
0x55612db19990 1000 0x55612da409c0 0x55612db1b5c0
cpu	0	set	1895	paddr	93256472058306	PC	4207559	type	0
0x55612dbe0e00 1895 0x55612da409c0 0x55612dbdf240
cpu	0	set	1898	paddr	93256472058498	PC	4207559	type	0
0x55612dbe18b0 1898 0x55612da409c0 0x55612dbdfcc0
cpu	0	set	999	paddr	269827608738290	PC	4207818	type	0
0x55612db19600 999 0x55612da409c0 0x55612db1b240
cpu	0	set	998	paddr	269827608738195	PC	4207818	type	0
0x55612db19270 998 0x55612da409c0 0x55612db1aec0
cpu	0	set	996	paddr	269827608738101	PC	4207818	type	0
0x55612db18b50 996 0x55612da409c0 0x55612db1a7c0
cpu	0	set	994	paddr	269827608737974	PC	4207818	type	0
0x55612db18430 994 0x55612da409c0 0x55612db1a0c0
cpu	0	set	1900	paddr	93256472058682	PC	4207559	type	0
0x55612dbe1fd0 1900 0x55612da409c0 0x55612dbe03c0
cpu	0	set	993	paddr	269827608737916	PC	4207818	type	0
0x55612db180a0 993 0x55612da409c0 0x55612db19d40
cpu	0	set	991	paddr	269827608737763	PC	4207818	type	0
0x55612db17980 991 0x55612da409c0 0x55612db19640
cpu	0	set	989	paddr	269827608737625	PC	4207818	type	0
0x55612db17260 989 0x55612da409c0 0x55612db18f40
cpu	0	set	1905	paddr	93256472058957	PC	4207559	type	0
0x55612dbe31a0 1905 0x55612da409c0 0x55612dbe1540
cpu	0	set	988	paddr	269827608737598	PC	4207818	type	0
0x55612db16ed0 988 0x55612da409c0 0x55612db18bc0
cpu	0	set	869	paddr	123867238947196	PC	4207812	type	0
0x55612dafc6e0 869 0x55612da409c0 0x55612dafeb40
cpu	0	set	1934	paddr	233854673216432	PC	4207559	type	0
0x55612dbe98f0 1934 0x55612da409c0 0x55612dbe7ac0
cpu	0	set	1917	paddr	93256472059759	PC	4207559	type	0
0x55612dbe5c60 1917 0x55612da409c0 0x55612dbe3f40
cpu	0	set	985	paddr	269827608737386	PC	4207818	type	0
0x55612db16420 985 0x55612da409c0 0x55612db18140
cpu	0	set	983	paddr	269827608737217	PC	4207818	type	0
0x55612db15d00 983 0x55612da409c0 0x55612db17a40
cpu	0	set	1937	paddr	233854673216614	PC	4207559	type	0
0x55612dbea3a0 1937 0x55612da409c0 0x55612dbe8540
cpu	0	set	1942	paddr	233854673216936	PC	4207559	type	0
0x55612dbeb570 1942 0x55612da409c0 0x55612dbe96c0
cpu	0	set	982	paddr	269827608737200	PC	4207818	type	0
0x55612db15970 982 0x55612da409c0 0x55612db176c0
cpu	0	set	115	paddr	163830644612288	PC	4207552	type	0
0x55612da548c0 115 0x55612da409c0 0x55612da59c40
cpu	0	set	1952	paddr	233854673217557	PC	4207559	type	0
0x55612dbed910 1952 0x55612da409c0 0x55612dbeb9c0
cpu	0	set	1953	paddr	233854673217635	PC	4207559	type	0
0x55612dbedca0 1953 0x55612da409c0 0x55612dbebd40
cpu	0	set	1954	paddr	233854673217721	PC	4207559	type	0
0x55612dbee030 1954 0x55612da409c0 0x55612dbec0c0
cpu	0	set	1955	paddr	233854673217740	PC	4207559	type	0
0x55612dbee3c0 1955 0x55612da409c0 0x55612dbec440
cpu	0	set	980	paddr	269827608737069	PC	4207818	type	0
0x55612db15250 980 0x55612da409c0 0x55612db16fc0
cpu	0	set	979	paddr	269827608737009	PC	4207818	type	0
0x55612db14ec0 979 0x55612da409c0 0x55612db16c40
cpu	0	set	977	paddr	269827608736862	PC	4207818	type	0
0x55612db147a0 977 0x55612da409c0 0x55612db16540
cpu	0	set	1958	paddr	233854673217928	PC	4207559	type	0
0x55612dbeee70 1958 0x55612da409c0 0x55612dbecec0
cpu	0	set	976	paddr	269827608736803	PC	4207818	type	0
0x55612db14410 976 0x55612da409c0 0x55612db161c0
cpu	0	set	1965	paddr	233854673218420	PC	4207559	type	0
0x55612dbf0760 1965 0x55612da409c0 0x55612dbee740
cpu	0	set	974	paddr	269827608736689	PC	4207818	type	0
0x55612db13cf0 974 0x55612da409c0 0x55612db15ac0
cpu	0	set	1977	paddr	233854673219193	PC	4207559	type	0
0x55612dbf3220 1977 0x55612da409c0 0x55612dbf1140
cpu	0	set	1978	paddr	233854673219202	PC	4207559	type	0
0x55612dbf35b0 1978 0x55612da409c0 0x55612dbf14c0
cpu	0	set	973	paddr	269827608736628	PC	4207818	type	0
0x55612db13960 973 0x55612da409c0 0x55612db15740
cpu	0	set	1979	paddr	233854673219319	PC	4207559	type	0
0x55612dbf3940 1979 0x55612da409c0 0x55612dbf1840
cpu	0	set	512	paddr	72156687663131	PC	4207559	type	0
0x55612daacf10 512 0x55612da409c0 0x55612dab09c0
cpu	0	set	513	paddr	72156687663186	PC	4207559	type	0
0x55612daad2a0 513 0x55612da409c0 0x55612dab0d40
cpu	0	set	528	paddr	72156687664133	PC	4207559	type	0
0x55612dab0810 528 0x55612da409c0 0x55612dab41c0
cpu	0	set	531	paddr	72156687664358	PC	4207559	type	0
0x55612dab12c0 531 0x55612da409c0 0x55612dab4c40
[...]
cpu	0	set	1249	paddr	184618014816320	PC	4207818	type	0
0x55612db510a0 1249 0x55612da409c0 0x55612db51d40
cpu	0	set	1266	paddr	184618014817408	PC	4207818	type	0
0x55612db54d30 1266 0x55612da409c0 0x55612db558c0
cpu	0	set	1054	paddr	76590141212544	PC	4207818	type	0
0x55612db259f0 1054 0x55612da409c0 0x55612db272c0
cpu	0	set	1374	paddr	16255534454656	PC	4207559	type	0
0x55612db6cdf0 1374 0x55612da409c0 0x55612db6d2c0
cpu	0	set	1238	paddr	97995676136832	PC	4207559	type	0
0x55612db4e970 1238 0x55612da409c0 0x55612db4f6c0
cpu	0	set	1271	paddr	184618014817728	PC	4207559	type	0
0x55612db55f00 1271 0x55612da409c0 0x55612db56a40
cpu	0	set	358	paddr	245297178237312	PC	4207559	type	0
0x55612da8aa70 358 0x55612da409c0 0x55612da8eec0
cpu	0	set	18	paddr	221177277318272	PC	4207559	type	0
0x55612da3ef30 18 0x55612da409c0 0x55612da448c0
cpu	0	set	1029	paddr	52812344394048	PC	4207559	type	0
0x55612db200e0 1029 0x55612da409c0 0x55612db21b40
cpu	0	set	1680	paddr	63603941024768	PC	4207559	type	0
0x55612dbb1010 1680 0x55612da409c0 0x55612dbb01c0
cpu	0	set	815	paddr	225436250852288	PC	4207559	type	0
0x55612daf0680 815 0x55612da409c0 0x55612daf2e40
cpu	0	set	385	paddr	102395569135680	PC	4207559	type	0
0x55612da90aa0 385 0x55612da409c0 0x55612da94d40
cpu	0	set	1621	paddr	63051338585408	PC	4207559	type	0
0x55612dba3de0 1621 0x55612da409c0 0x55612dba3340
cpu	0	set	19	paddr	72880832382144	PC	4207559	type	0
0x55612da3f2c0 19 0x55612da409c0 0x55612da44c40
cpu	0	set	550	paddr	59308544657792	PC	4207559	type	0
0x55612dab5670 550 0x55612da409c0 0x55612dab8ec0
cpu	0	set	1678	paddr	69822958773120	PC	4207559	type	0
0x55612dbb08f0 1678 0x55612da409c0 0x55612dbafac0
cpu	0	set	1906	paddr	89198798298240	PC	4207559	type	0
0x55612dbe3530 1906 0x55612da409c0 0x55612dbe18c0
cpu	0	set	223	paddr	205439036700608	PC	4207559	type	0
0x55612da6c980 223 0x55612da409c0 0x55612da71640
cpu	0	set	1717	paddr	63603941027136	PC	4207559	type	0
0x55612dbb93e0 1717 0x55612da409c0 0x55612dbb8340
cpu	0	set	140	paddr	199563836400384	PC	4207456	type	0
0x55612da5a1d0 140 0x55612da409c0 0x55612da5f3c0
cpu	0	set	115	paddr	164689685388480	PC	4207559	type	0
0x55612da548c0 115 0x55612da409c0 0x55612da59c40
cpu	0	set	1026	paddr	140359900004480	PC	4207559	type	0
0x55612db1f630 1026 0x55612da409c0 0x55612db210c0
cpu	0	set	430	paddr	274812929600384	PC	4207559	type	0
0x55612da9aaf0 430 0x55612da409c0 0x55612da9eac0
cpu	0	set	1510	paddr	161354593565056	PC	4207559	type	0
0x55612db8b270 1510 0x55612da409c0 0x55612db8aec0
cpu	0	set	1039	paddr	52812344394688	PC	4207559	type	0
0x55612db22480 1039 0x55612da409c0 0x55612db23e40
cpu	0	set	326	paddr	253919015096704	PC	4207559	type	0
0x55612da83870 326 0x55612da409c0 0x55612da87ec0
cpu	0	set	428	paddr	242788964657920	PC	4207559	type	0
0x55612da9a3d0 428 0x55612da409c0 0x55612da9e3c0
cpu	0	set	422	paddr	274812929599872	PC	4207559	type	0
0x55612da98e70 422 0x55612da409c0 0x55612da9cec0
cpu	0	set	883	paddr	42333963869376	PC	4207559	type	0
0x55612daff8c0 883 0x55612da409c0 0x55612db01c40
cpu	0	set	942	paddr	83872726313856	PC	4207559	type	0
0x55612db0caf0 942 0x55612da409c0 0x55612db0eac0
cpu	0	set	1035	paddr	52812344394432	PC	4207559	type	0
0x55612db21640 1035 0x55612da409c0 0x55612db23040
cpu	0	set	897	paddr	83872726310976	PC	4207559	type	0
0x55612db02aa0 897 0x55612da409c0 0x55612db04d40
cpu	0	set	874	paddr	42333963868800	PC	4207559	type	0
0x55612dafd8b0 874 0x55612da409c0 0x55612daffcc0
cpu	0	set	520	paddr	59308544655872	PC	4207559	type	0
0x55612daaeb90 520 0x55612da409c0 0x55612dab25c0
cpu	0	set	43	paddr	221177277319872	PC	4207559	type	0
0x55612da44840 43 0x55612da409c0 0x55612da4a040
cpu	0	set	753	paddr	191110969998400	PC	4207559	type	0
0x55612dae29a0 753 0x55612da409c0 0x55612dae5540
cpu	0	set	1529	paddr	161354593566272	PC	4207559	type	0
0x55612db8f620 1529 0x55612da409c0 0x55612db8f140
cpu	0	set	959	paddr	83872726314944	PC	4207559	type	0
0x55612db10780 959 0x55612da409c0 0x55612db12640
cpu	0	set	243	paddr	205439036701888	PC	4207559	type	0
0x55612da710c0 243 0x55612da409c0 0x55612da75c40
cpu	0	set	426	paddr	102395569138304	PC	4207559	type	0
0x55612da99cb0 426 0x55612da409c0 0x55612da9dcc0
cpu	0	set	545	paddr	59308544657472	PC	4207559	type	0
0x55612dab44a0 545 0x55612da409c0 0x55612dab7d40
cpu	0	set	1906	paddr	204028273351808	PC	4207559	type	0
0x55612dbe3530 1906 0x55612da409c0 0x55612dbe18c0
cpu	0	set	158	paddr	199563836401536	PC	4207559	type	0
0x55612da5e1f0 158 0x55612da409c0 0x55612da632c0
cpu	0	set	433	paddr	242788964658240	PC	4207559	type	0
0x55612da9b5a0 433 0x55612da409c0 0x55612da9f540
cpu	0	set	1876	paddr	204028273349888	PC	4207559	type	0
0x55612dbdca50 1876 0x55612da409c0 0x55612dbdafc0
cpu	0	set	1169	paddr	73944989639744	PC	4207559	type	0
0x55612db3f3a0 1169 0x55612da409c0 0x55612db40540
cpu	0	set	1358	paddr	198977552601984	PC	4207559	type	0
0x55612db694f0 1358 0x55612da409c0 0x55612db69ac0
cpu	0	set	384	paddr	274812929597440	PC	4207559	type	0
0x55612da90710 384 0x55612da409c0 0x55612da949c0
cpu	0	set	820	paddr	225436250852608	PC	4207559	type	0
0x55612daf1850 820 0x55612da409c0 0x55612daf3fc0
cpu	0	set	1226	paddr	184618014814848	PC	4207559	type	0
0x55612db4beb0 1226 0x55612da409c0 0x55612db4ccc0
cpu	0	set	1895	paddr	204028273351104	PC	4207559	type	0
0x55612dbe0e00 1895 0x55612da409c0 0x55612dbdf240
cpu	0	set	902	paddr	44188509856128	PC	4207559	type	0
0x55612db03c70 902 0x55612da409c0 0x55612db05ec0
cpu	0	set	1037	paddr	140359900005184	PC	4207559	type	0
0x55612db21d60 1037 0x55612da409c0 0x55612db23740
cpu	0	set	1490	paddr	183413320152192	PC	4207559	type	0
0x55612db86b30 1490 0x55612da409c0 0x55612db868c0
cpu	0	set	944	paddr	44188509858816	PC	4207559	type	0
0x55612db0d210 944 0x55612da409c0 0x55612db0f1c0
cpu	0	set	847	paddr	133213193032640	PC	4205225	type	0
0x55612daf7880 847 0x55612da409c0 0x55612daf9e40
cpu	0	set	1222	paddr	97995676135808	PC	4205221	type	0
0x55612db4b070 1222 0x55612da409c0 0x55612db4bec0
cpu	0	set	775	paddr	225436250849728	PC	4205221	type	0
0x55612dae7800 775 0x55612da409c0 0x55612daea240
cpu	0	set	183	paddr	199563836403136	PC	4205349	type	0
0x55612da63b00 183 0x55612da409c0 0x55612da68a40
cpu	0	set	441	paddr	102395569139264	PC	4205268	type	0
0x55612da9d220 441 0x55612da409c0 0x55612daa1140
cpu	0	set	1912	paddr	204028273352192	PC	4205281	type	0
0x55612dbe4a90 1912 0x55612da409c0 0x55612dbe2dc0
cpu	0	set	1053	paddr	52812344395584	PC	4205319	type	0
0x55612db25660 1053 0x55612da409c0 0x55612db26f40
cpu	0	set	349	paddr	245297178236736	PC	4205298	type	0
0x55612da88a60 349 0x55612da409c0 0x55612da8cf40
cpu	0	set	1912	paddr	141600704028160	PC	4205285	type	0
0x55612dbe4a90 1912 0x55612da409c0 0x55612dbe2dc0
cpu	0	set	1014	paddr	19451066383744	PC	4205336	type	0
0x55612db1cb70 1014 0x55612da409c0 0x55612db1e6c0
cpu	0	set	978	paddr	19451066381440	PC	4205302	type	0
0x55612db14b30 978 0x55612da409c0 0x55612db168c0
cpu	0	set	1542	paddr	156682835820928	PC	4205302	type	0
0x55612db92470 1542 0x55612da409c0 0x55612db91ec0
cpu	0	set	797	paddr	86587736639296	PC	4205353	type	0
0x55612daec660 797 0x55612da409c0 0x55612daeef40
cpu	0	set	366	paddr	245297178237824	PC	4205353	type	0
0x55612da8c6f0 366 0x55612da409c0 0x55612da90ac0
cpu	0	set	383	paddr	87170743689152	PC	4205315	type	0
0x55612da90380 383 0x55612da409c0 0x55612da94640
cpu	0	set	1711	paddr	69822958775232	PC	4207559	type	0
0x55612dbb7e80 1711 0x55612da409c0 0x55612dbb6e40
cpu	0	set	407	paddr	39307831436736	PC	4207559	type	0
0x55612da95900 407 0x55612da409c0 0x55612da99a40
cpu	0	set	1085	paddr	76590141214528	PC	4207559	type	0
0x55612db2c860 1085 0x55612da409c0 0x55612db2df40
cpu	0	set	1082	paddr	76590141214336	PC	4207559	type	0
0x55612db2bdb0 1082 0x55612da409c0 0x55612db2d4c0
cpu	0	set	14	paddr	221177277318016	PC	4207559	type	0
0x55612da3e0f0 14 0x55612da409c0 0x55612da43ac0
cpu	0	set	1694	paddr	48794029238144	PC	4207559	type	0
0x55612dbb41f0 1694 0x55612da409c0 0x55612dbb32c0
cpu	0	set	1666	paddr	69822958772352	PC	4207559	type	0
0x55612dbade30 1666 0x55612da409c0 0x55612dbad0c0
cpu	0	set	1079	paddr	76590141214144	PC	4207559	type	0
0x55612db2b300 1079 0x55612da409c0 0x55612db2ca40
cpu	0	set	1032	paddr	76590141211136	PC	4207559	type	0
0x55612db20b90 1032 0x55612da409c0 0x55612db225c0
cpu	0	set	1247	paddr	184618014816192	PC	4207559	type	0
0x55612db50980 1247 0x55612da409c0 0x55612db51640
cpu	0	set	743	paddr	64633830160832	PC	4207559	type	0
0x55612dae0600 743 0x55612da409c0 0x55612dae3240
cpu	0	set	1359	paddr	16255534453696	PC	4205221	type	0
0x55612db69880 1359 0x55612da409c0 0x55612db69e40
cpu	0	set	355	paddr	253919015098560	PC	4205251	type	0
0x55612da89fc0 355 0x55612da409c0 0x55612da8e440
cpu	0	set	1352	paddr	198977552601600	PC	4205264	type	0
0x55612db67f90 1352 0x55612da409c0 0x55612db685c0
cpu	0	set	1762	paddr	80886041786496	PC	4205247	type	0
0x55612dbc3430 1762 0x55612da409c0 0x55612dbc20c0
cpu	0	set	390	paddr	39307831435648	PC	4205247	type	0
0x55612da91c70 390 0x55612da409c0 0x55612da95ec0
cpu	0	set	746	paddr	255742252333696	PC	4205221	type	0
0x55612dae10b0 746 0x55612da409c0 0x55612dae3cc0
cpu	0	set	713	paddr	255742252331584	PC	4205221	type	0
0x55612dad9b20 713 0x55612da409c0 0x55612dadc940
cpu	0	set	334	paddr	87170743686016	PC	4205251	type	0
0x55612da854f0 334 0x55612da409c0 0x55612da89ac0
cpu	0	set	949	paddr	83872726314304	PC	4205285	type	0
0x55612db0e3e0 949 0x55612da409c0 0x55612db10340
cpu	0	set	571	paddr	59308544659136	PC	4205281	type	0
0x55612daba140 571 0x55612da409c0 0x55612dabd840
cpu	0	set	767	paddr	191110969999296	PC	4205281	type	0
0x55612dae5b80 767 0x55612da409c0 0x55612dae8640
cpu	0	set	8	paddr	221177277317632	PC	4205281	type	0
0x55612da3cb90 8 0x55612da409c0 0x55612da425c0
Heartbeat CPU 0 instructions: 1000002 cycles: 1565083 heartbeat IPC: 0.638945 cumulative IPC: 0.592207 (Simulation time: 0 hr 0 min 3 sec) 
cpu	0	set	861	paddr	42333963867968	PC	4205298	type	0
0x55612dafaa60 861 0x55612da409c0 0x55612dafcf40
cpu	0	set	320	paddr	87170743685120	PC	4205332	type	0
0x55612da82310 320 0x55612da409c0 0x55612da869c0
cpu	0	set	1374	paddr	50990465636224	PC	4205336	type	0
0x55612db6cdf0 1374 0x55612da409c0 0x55612db6d2c0
cpu	0	set	704	paddr	191110969995264	PC	4205302	type	0
0x55612dad7b10 704 0x55612da409c0 0x55612dada9c0
cpu	0	set	709	paddr	191110969995584	PC	4205349	type	0
0x55612dad8ce0 709 0x55612da409c0 0x55612dadbb40
cpu	0	set	1689	paddr	118370821318208	PC	4205298	type	0
0x55612dbb3020 1689 0x55612da409c0 0x55612dbb2140
cpu	0	set	1261	paddr	33504840727360	PC	4205387	type	0
0x55612db53b60 1261 0x55612da409c0 0x55612db54740
cpu	0	set	1273	paddr	33504840728128	PC	4205336	type	0
0x55612db56620 1273 0x55612da409c0 0x55612db57140
cpu	0	set	34	paddr	221177277319296	PC	4205336	type	0
0x55612da42830 34 0x55612da409c0 0x55612da480c0
cpu	0	set	47	paddr	178705920560064	PC	4205285	type	0
0x55612da45680 47 0x55612da409c0 0x55612da4ae40
cpu	0	set	1058	paddr	103151729838208	PC	4205349	type	0
0x55612db26830 1058 0x55612da409c0 0x55612db280c0
cpu	0	set	1800	paddr	176887942332970	PC	4205475	type	0
0x55612dbcbb90 1800 0x55612da409c0 0x55612dbca5c0
cpu	0	set	1761	paddr	67140384438398	PC	4205480	type	0
0x55612dbc30a0 1761 0x55612da409c0 0x55612dbc1d40
cpu	0	set	1784	paddr	204717285031424	PC	4207559	type	0
0x55612dbc8290 1784 0x55612da409c0 0x55612dbc6dc0
cpu	0	set	1395	paddr	16255534456000	PC	4207818	type	0
0x55612db718c0 1395 0x55612da409c0 0x55612db71c40
cpu	0	set	799	paddr	225436250851264	PC	4207559	type	0
0x55612daecd80 799 0x55612da409c0 0x55612daef640
cpu	0	set	1678	paddr	200972561130394	PC	4205475	type	0
0x55612dbb08f0 1678 0x55612da409c0 0x55612dbafac0
cpu	0	set	1893	paddr	201764180973914	PC	4205480	type	0
0x55612dbe06e0 1893 0x55612da409c0 0x55612dbdeb40
cpu	0	set	1029	paddr	76590141210944	PC	4205577	type	0
0x55612db200e0 1029 0x55612da409c0 0x55612db21b40
cpu	0	set	1062	paddr	52812344396160	PC	4205251	type	0
0x55612db27670 1062 0x55612da409c0 0x55612db28ec0
cpu	0	set	938	paddr	138917968800442	PC	4205475	type	0
0x55612db0bcb0 938 0x55612da409c0 0x55612db0dcc0
cpu	0	set	912	paddr	146991278384182	PC	4205480	type	0
0x55612db06010 912 0x55612da409c0 0x55612db081c0
cpu	0	set	939	paddr	138917968800448	PC	4205592	type	0
0x55612db0c040 939 0x55612da409c0 0x55612db0e040
cpu	0	set	932	paddr	138917968800010	PC	4205475	type	0
0x55612db0a750 932 0x55612da409c0 0x55612db0c7c0
cpu	0	set	1279	paddr	67758177206210	PC	4205480	type	0
0x55612db57b80 1279 0x55612da409c0 0x55612db58640
cpu	0	set	1252	paddr	67758177204540	PC	4205480	type	0
0x55612db51b50 1252 0x55612da409c0 0x55612db527c0
cpu	0	set	1279	paddr	15738353172452	PC	4205475	type	0
0x55612db57b80 1279 0x55612da409c0 0x55612db58640
cpu	0	set	1253	paddr	67758177204544	PC	4205558	type	0
0x55612db51ee0 1253 0x55612da409c0 0x55612db52b40
cpu	0	set	1623	paddr	197778284320222	PC	4205475	type	0
0x55612dba4500 1623 0x55612da409c0 0x55612dba3a40
cpu	0	set	910	paddr	253714004894598	PC	4205475	type	0
0x55612db058f0 910 0x55612da409c0 0x55612db07ac0
cpu	0	set	899	paddr	253714004893916	PC	4205475	type	0
0x55612db031c0 899 0x55612da409c0 0x55612db05440
cpu	0	set	873	paddr	51404590209602	PC	4205475	type	0
0x55612dafd520 873 0x55612da409c0 0x55612daff940
cpu	0	set	1914	paddr	201764180975238	PC	4205475	type	0
0x55612dbe51b0 1914 0x55612da409c0 0x55612dbe34c0
cpu	0	set	1446	paddr	16596526262682	PC	4205480	type	0
0x55612db7ce70 1446 0x55612da409c0 0x55612db7cec0
cpu	0	set	377	paddr	21715741072972	PC	4205475	type	0
0x55612da8ee20 377 0x55612da409c0 0x55612da93140
cpu	0	set	1349	paddr	52742621974860	PC	4205480	type	0
0x55612db674e0 1349 0x55612da409c0 0x55612db67b40
cpu	0	set	1439	paddr	16596526262248	PC	4205480	type	0
0x55612db7b580 1439 0x55612da409c0 0x55612db7b640
cpu	0	set	51	paddr	116449071336694	PC	4205475	type	0
0x55612da464c0 51 0x55612da409c0 0x55612da4bc40
cpu	0	set	18	paddr	110915363407006	PC	4205475	type	0
0x55612da3ef30 18 0x55612da409c0 0x55612da448c0
cpu	0	set	874	paddr	217670611163780	PC	4205480	type	0
0x55612dafd8b0 874 0x55612da409c0 0x55612daffcc0
cpu	0	set	1667	paddr	200972561129676	PC	4205475	type	0
0x55612dbae1c0 1667 0x55612da409c0 0x55612dbad440
cpu	0	set	954	paddr	27797072965250	PC	4205480	type	0
0x55612db0f5b0 954 0x55612da409c0 0x55612db114c0
cpu	0	set	1965	paddr	201351932668798	PC	4205475	type	0
0x55612dbf0760 1965 0x55612da409c0 0x55612dbee740
cpu	0	set	14	paddr	264058192790460	PC	4205480	type	0
0x55612da3e0f0 14 0x55612da409c0 0x55612da43ac0
cpu	0	set	1293	paddr	37215124276048	PC	4205475	type	0
0x55612db5ad60 1293 0x55612da409c0 0x55612db5b740
cpu	0	set	80	paddr	234197937558528	PC	4205336	type	0
0x55612da4cc10 80 0x55612da409c0 0x55612da521c0
cpu	0	set	814	paddr	65593043372932	PC	4205475	type	0
0x55612daf02f0 814 0x55612da409c0 0x55612daf2ac0
cpu	0	set	804	paddr	65593043372332	PC	4205480	type	0
0x55612daedf50 804 0x55612da409c0 0x55612daf07c0
cpu	0	set	947	paddr	27797072964844	PC	4205475	type	0
0x55612db0dcc0 947 0x55612da409c0 0x55612db0fc40
cpu	0	set	1868	paddr	276975411254032	PC	4205475	type	0
0x55612dbdadd0 1868 0x55612da409c0 0x55612dbd93c0
cpu	0	set	538	paddr	128540986607236	PC	4205480	type	0
0x55612dab2bb0 538 0x55612da409c0 0x55612dab64c0
cpu	0	set	1497	paddr	107136427980352	PC	4205281	type	0
0x55612db88420 1497 0x55612da409c0 0x55612db88140
cpu	0	set	768	paddr	159260623945738	PC	4205475	type	0
0x55612dae5f10 768 0x55612da409c0 0x55612dae89c0
cpu	0	set	311	paddr	151976720616946	PC	4205475	type	0
0x55612da80300 311 0x55612da409c0 0x55612da84a40
cpu	0	set	1206	paddr	35529469537694	PC	4205475	type	0
0x55612db47770 1206 0x55612da409c0 0x55612db486c0
cpu	0	set	793	paddr	113148469364288	PC	4205499	type	0
0x55612daeb820 793 0x55612da409c0 0x55612daee140
cpu	0	set	284	paddr	151976720615174	PC	4205475	type	0
0x55612da7a2d0 284 0x55612da409c0 0x55612da7ebc0
cpu	0	set	1523	paddr	107136427982016	PC	4205353	type	0
0x55612db8e0c0 1523 0x55612da409c0 0x55612db8dc40
cpu	0	set	1398	paddr	120914978102706	PC	4205475	type	0
0x55612db72370 1398 0x55612da409c0 0x55612db726c0
cpu	0	set	1770	paddr	122976132643498	PC	4205480	type	0
0x55612dbc50b0 1770 0x55612da409c0 0x55612dbc3cc0
cpu	0	set	1212	paddr	29037064302352	PC	4205475	type	0
0x55612db48cd0 1212 0x55612da409c0 0x55612db49bc0
cpu	0	set	2002	paddr	246566013367424	PC	4205480	type	0
0x55612dbf8b30 2002 0x55612da409c0 0x55612dbf68c0
cpu	0	set	1671	paddr	7391066431988	PC	4205475	type	0
0x55612dbaf000 1671 0x55612da409c0 0x55612dbae240
cpu	0	set	1229	paddr	217191891678062	PC	4205480	type	0
0x55612db4c960 1229 0x55612da409c0 0x55612db4d740
cpu	0	set	1220	paddr	217191891677480	PC	4205475	type	0
0x55612db4a950 1220 0x55612da409c0 0x55612db4b7c0
cpu	0	set	1408	paddr	141772134768640	PC	4205366	type	0
0x55612db74710 1408 0x55612da409c0 0x55612db749c0
cpu	0	set	833	paddr	201418373386366	PC	4205480	type	0
0x55612daf46a0 833 0x55612da409c0 0x55612daf6d40
cpu	0	set	834	paddr	201418373386368	PC	4205519	type	0
0x55612daf4a30 834 0x55612da409c0 0x55612daf70c0
cpu	0	set	278	paddr	122117675435392	PC	4205332	type	0
0x55612da78d70 278 0x55612da409c0 0x55612da7d6c0
cpu	0	set	1205	paddr	29037064301938	PC	4205480	type	0
0x55612db473e0 1205 0x55612da409c0 0x55612db48340
cpu	0	set	1776	paddr	93252702551084	PC	4205475	type	0
0x55612dbc6610 1776 0x55612da409c0 0x55612dbc51c0
cpu	0	set	1757	paddr	93252702549850	PC	4205475	type	0
0x55612dbc2260 1757 0x55612da409c0 0x55612dbc0f40
cpu	0	set	1699	paddr	7391066433738	PC	4205475	type	0
0x55612dbb53c0 1699 0x55612da409c0 0x55612dbb4440
cpu	0	set	1532	paddr	139365588107008	PC	4205408	type	0
0x55612db900d0 1532 0x55612da409c0 0x55612db8fbc0
cpu	0	set	764	paddr	159910604750628	PC	4205475	type	0
0x55612dae50d0 764 0x55612da409c0 0x55612dae7bc0
cpu	0	set	816	paddr	159260623948824	PC	4205480	type	0
0x55612daf0a10 816 0x55612da409c0 0x55612daf31c0
cpu	0	set	1614	paddr	156340792955798	PC	4205475	type	0
0x55612dba24f0 1614 0x55612da409c0 0x55612dba1ac0
cpu	0	set	1312	paddr	37215124277308	PC	4205475	type	0
0x55612db5f110 1312 0x55612da409c0 0x55612db5f9c0
cpu	0	set	1342	paddr	37215124279228	PC	4205480	type	0
0x55612db65bf0 1342 0x55612da409c0 0x55612db662c0
cpu	0	set	1505	paddr	87034861680736	PC	4205475	type	0
0x55612db8a0a0 1505 0x55612da409c0 0x55612db89d40
cpu	0	set	1975	paddr	192311614631398	PC	4205475	type	0
0x55612dbf2b00 1975 0x55612da409c0 0x55612dbf0a40
cpu	0	set	698	paddr	2852661276350	PC	4205480	type	0
0x55612dad65b0 698 0x55612da409c0 0x55612dad94c0
cpu	0	set	699	paddr	2852661276352	PC	4205519	type	0
0x55612dad6940 699 0x55612da409c0 0x55612dad9840
cpu	0	set	813	paddr	130396869020480	PC	4205475	type	0
0x55612daeff60 813 0x55612da409c0 0x55612daf2740
cpu	0	set	169	paddr	98718131432014	PC	4205475	type	0
0x55612da60920 169 0x55612da409c0 0x55612da65940
cpu	0	set	1177	paddr	49514830964342	PC	4205475	type	0
0x55612db41020 1177 0x55612da409c0 0x55612db42140
cpu	0	set	1724	paddr	280618301632258	PC	4205480	type	0
0x55612dbbacd0 1724 0x55612da409c0 0x55612dbb9bc0
cpu	0	set	877	paddr	151117672274752	PC	4205221	type	0
0x55612dafe360 877 0x55612da409c0 0x55612db00740
cpu	0	set	222	paddr	72500794243000	PC	4205475	type	0
0x55612da6c5f0 222 0x55612da409c0 0x55612da712c0
cpu	0	set	939	paddr	244437275568862	PC	4205480	type	0
0x55612db0c040 939 0x55612da409c0 0x55612db0e040
cpu	0	set	1583	paddr	273745249274816	PC	4205264	type	0
0x55612db9b680 1583 0x55612da409c0 0x55612db9ae40
cpu	0	set	1949	paddr	126377092310848	PC	4205247	type	0
0x55612dbece60 1949 0x55612da409c0 0x55612dbeaf40
cpu	0	set	1477	paddr	107136427979072	PC	4205221	type	0
0x55612db83ce0 1477 0x55612da409c0 0x55612db83b40
Finished CPU 0 instructions: 1000001 cycles: 1677819 cummulative IPC: 0.596012 (Simulation time: 0 hr 0 min 3 sec) 

ChampSim completed all CPUs

Region of Interest Statistics

CPU 0 cummulative IPC: 0.596012 instructions: 1000001 cycles: 1677819
LLC TOTAL     ACCESS:       3592  HIT:        345  MISS:       3247
LLC LOAD      ACCESS:       3546  HIT:        299  MISS:       3247
LLC RFO       ACCESS:          0  HIT:          0  MISS:          0
LLC PREFETCH  ACCESS:          0  HIT:          0  MISS:          0
LLC WRITEBACK ACCESS:         46  HIT:         46  MISS:          0
